ELEMENTS
    H     C     CI / 13.003  /AR
END

SPECIES
    ethane   CC
END

THERM ALL
    300.000  1000.000  5000.000
ethane                  H 6  C 2            G100.000   5000.000  954.51        1
 4.58979653E+00 1.41508345E-02-4.75965676E-06 8.60302658E-10-6.21723639E-14    2
-1.27217512E+04-3.61719603E+00 3.78034545E+00-3.24275729E-03 5.52385248E-05    3
-6.38587529E-08 2.28639901E-11-1.16203413E+04 5.21029844E+00                   4
CC                      H 6  C 1  CI1       G100.000   5000.000  954.51        1
 4.58979542E+00 1.41508364E-02-4.75965787E-06 8.60302924E-10-6.21723861E-14    2
-1.27217507E+04-2.92404261E+00 3.78034578E+00-3.24276131E-03 5.52385395E-05    3
-6.38587729E-08 2.28639990E-11-1.16203414E+04 5.90344446E+00                   4
END
