ELEMENTS
H  C
END

SPECIES
C2H  C2   H2   H
END

THERMO
   300.000  1000.000  6000.000
H                       H  1 C  0    0      G     200.0    6000.0    1000.0    1
 0.25000000E+01 0.00000000E+00 0.00000000E+00 0.00000000E+00 0.00000000E+00    2
 0.25473660E+05-0.44668285E+00 0.25000000E+01 0.00000000E+00 0.00000000E+00    3
 0.00000000E+00 0.00000000E+00 0.25473660E+05-0.44668285E+00 0.26219035E+05    4
H2                      H  2 C  0    0      G     200.0    6000.0    1000.0    1
 2.98711895E+00 7.36069465E-04-9.00982609E-08-7.41224720E-13 6.58618037E-16    2
-8.35448659E+02-1.33268877E+00 3.50207268E+00 8.65475654E-05-2.63683344E-07    3
 3.37306621E-10-2.92359706E-14-1.04631279E+03-4.25875759E+00 0.00000000E+00    4
C2                      H  0 C  2    0      G     200.0    6000.0    1000.0    1
 3.43350371E+00 1.07185010E-03-3.97897382E-07 6.67457391E-11-4.10152154E-15    2
 1.00178987E+05 4.10588356E+00 3.76163273E+00-2.72143299E-03 8.69879462E-06    3
-8.19304667E-09 2.62415296E-12 1.00254566E+05 3.18038623E+00 1.01317039E+05    4
C2H                     H  1 C  2.   0      G     200.0    6000.0    1000.0    1
 3.66270248E+00 3.82492252E-03-1.36632500E-06 2.13455040E-10-1.23216848E-14    2
 6.71683790E+04 3.92205792E+00 2.89867676E+00 1.32988489E-02-2.80733327E-05    3
 2.89484755E-08-1.07502351E-11 6.70616050E+04 6.18547632E+00 6.83210436E+04    4
END

REACTIONS  CAL/MOLE  MOLES
C2 + H2 <=> C2H + H        6.6000000E+013    0.0000000E+000    8.0000000E+003
C2 + H2 <=> C2H + H        4.0000000E+005    2.4000000E+000    1.0000000E+003  ! not allowed undeclared
H2 + C2 <=> C2H + H        6.6000000E+013    0.0000000E+000    8.0000000E+003  ! not allowed undeclared
C2 + H2 <=> H + C2H        4.0000000E+005    2.4000000E+000    1.0000000E+003  ! not allowed undeclared
H + C2H <=> C2 + H2        4.0000000E+005    2.4000000E+000    1.0000000E+003  ! not allowed undeclared
C2H + H <=> C2 + H2        4.0000000E+005    2.4000000E+000    1.0000000E+003  ! not allowed undeclared
H + C2H <=> H2 + C2        4.0000000E+005    2.4000000E+000    1.0000000E+003  ! not allowed undeclared
END
