ELEM  H  C   END
SPECIES H R1A R1B P1 END

REACTIONS
R1A+R1B(+M) <=> H+P1(+M)                     1e12  0.0  20000.0
     LOW  /  1.040E+26   -2.760   1600.00/
     TROE/   .5620  91.00  5836.00  8552.00/
! Missing "LOW" line:
R1A+R1A(+M) <=> H+P1(+M)                     1e12  0.0  20000.0
     TROE/   .7830   74.00  2941.00  6964.00 /
END
