SITE/PT_SURFACE/
_Pt_ H_Pt
END
THERMO ALL
  300.0   1000.0   3000.0
H_Pt               92491H   1PT  1          I    300.00   3000.00 1000.00      1
 0.10696996E+01 0.15432230E-02-0.15500922E-06-0.16573165E-09 0.38359347E-13    2
-0.50546128E+04-0.71555238E+01-0.13029877E+01 0.54173199E-02 0.31277972E-06    3
-0.32328533E-08 0.11362820E-11-0.42277075E+04 0.58743238E+01                   4
_Pt_                    PT  1               S    300.0    3000.0  1000.0       1
 0.00000000E+00 0.00000000E+00 0.00000000E+00 0.00000000E+00 0.00000000E+00    2
 0.00000000E+00 0.00000000E+00 0.00000000E+00 0.00000000E+00 0.00000000E+00    3
 0.00000000E+00 0.00000000E+00 0.00000000E+00 0.00000000E+00                   4
END

REACTIONS      JOULES/MOLE      MWON
 H2 + 2_Pt_  => 2H_Pt                        4.4579E+10  0.5   0.0
    FORD/_Pt_  1/
 2H_Pt        => H2 + 2_Pt_                  3.70E+21   0.00   67400.0
                                        COV/H_Pt 0.0    0.0    -6000.0/
END
