!
!
!
!
ELEMENTS
O  H  Al Cl E Ar
END
SPECIES
ALCL3  AR
END
