ELEMENTS   H  C  END
SPECIES  H R1A R1B P1 P2A END

REACTIONS
R1A+R1B=>H+P1              1e12  0.0   20000.0
  FORD / R1A 1.5 /
  FORD / P2A 0.5 /
END
