ELEMENTS
H  C   AR
END

SPECIES
H
R1A R1B P1
R2 P2A P2B
R3 P3A P3B
R4 P4
R6 P6A P6B
END

REACTIONS    KELVIN  MOLECULES

R1A+R1B = P1+H             1.660539067E-6   -2.0   503.21956
R2+H = P2A+P2B             3.8192398545E-9  -1.0   500
    UNITS / CAL/MOL /
R3+H+M = P3A+P3B+M         4.0E21            0.0   1207.726880
    H/2/
    UNITS / MOL /
R4 = P4                    1.0E12            2.0   7531.2
    UNITS / JOULES/MOL /
R6(+M) = P6A + P6B(+M)     2.0E3             0.0   754.829300
     LOW  /  4.98161720E0    -0.400  452.897580/
     TROE / 0.650 7050. 123.0/
     DUPLICATE
P6A + P6B(+M) = R6(+M)     6.64215626E-12    2.0   754.829300
     LOW  /  8.2721685E-12    -1.400  452.897580/
     TROE / 0.650 7050. 123.0/
     DUPLICATE
END
