THERMO
       300      1000      5000
N2                000000N   2               G       300      5000    1000      1
 2.92664000E+00 1.48797680E-03-5.68476000E-07 1.00970380E-10-6.75335100E-15    2
-9.22797700E+02 5.98052800E+00 3.29867700E+00 1.40824040E-03-3.96322200E-06    3
 5.64151500E-09-2.44485400E-12-1.02089990E+03 3.95037200E+00                   4
AR                000000AR  1               G       300      5000    1000      1
 2.50000000E+00 0.00000000E+00 0.00000000E+00 0.00000000E+00 0.00000000E+00    2
-7.45375000E+02 4.36600000E+00 2.50000000E+00 0.00000000E+00 0.00000000E+00    3
 0.00000000E+00 0.00000000E+00-7.45375000E+02 4.36600000E+00                   4
HE                000000HE  1               G       300      5000    1000      1
 2.50000000E+00 0.00000000E+00 0.00000000E+00 0.00000000E+00 0.00000000E+00    2
-7.45375000E+02 9.28723974E-01 2.50000000E+00 0.00000000E+00 0.00000000E+00    3
 0.00000000E+00 0.00000000E+00-7.45375000E+02 9.28723974E-01                   4
H                 000000H   1               G       300      5000    1000      1
 2.50000001E+00-2.30842973E-11 1.61561948E-14-4.73515235E-18 4.98197357E-22    2
 2.54736599E+04-4.46682914E-01 2.50000000E+00 7.05332819E-13-1.99591964E-15    3
 2.30081632E-18-9.27732332E-22 2.54736599E+04-4.46682853E-01                   4
O2                000000O   2               G       300      5000    1000      1
 3.28253784E+00 1.48308754E-03-7.57966669E-07 2.09470555E-10-2.16717794E-14    2
-1.08845772E+03 5.45323129E+00 3.78245636E+00-2.99673416E-03 9.84730201E-06    3
-9.68129509E-09 3.24372837E-12-1.06394356E+03 3.65767573E+00                   4
OH                000000H   1O   1          G       300      5000    1000      1
 2.86472886E+00 1.05650448E-03-2.59082758E-07 3.05218674E-11-1.33195876E-15    2
 3.71885774E+03 5.70164073E+00 4.12530561E+00-3.22544939E-03 6.52764691E-06    3
-5.79853643E-09 2.06237379E-12 3.38153812E+03-6.90432960E-01                   4
O                 000000O   1               G       300      5000    1000      1
 2.56942078E+00-8.59741137E-05 4.19484589E-08-1.00177799E-11 1.22833691E-15    2
 2.92175791E+04 4.78433864E+00 3.16826710E+00-3.27931884E-03 6.64306396E-06    3
-6.12806624E-09 2.11265971E-12 2.91222592E+04 2.05193346E+00                   4
H2                000000H   2               G       300      5000    1000      1
 3.33727920E+00-4.94024731E-05 4.99456778E-07-1.79566394E-10 2.00255376E-14    2
-9.50158922E+02-3.20502331E+00 2.34433112E+00 7.98052075E-03-1.94781510E-05    3
 2.01572094E-08-7.37611761E-12-9.17935173E+02 6.83010238E-01                   4
H2O               000000H   2O   1          G       300      5000    1000      1
 3.03399249E+00 2.17691804E-03-1.64072518E-07-9.70419870E-11 1.68200992E-14    2
-3.00042971E+04 4.96677010E+00 4.19864056E+00-2.03643410E-03 6.52040211E-06    3
-5.48797062E-09 1.77197817E-12-3.02937267E+04-8.49032208E-01                   4
HO2               000000H   1O   2          G       300      5000    1000      1
 4.01721090E+00 2.23982013E-03-6.33658150E-07 1.14246370E-10-1.07908535E-14    2
 1.11856713E+02 3.78510215E+00 4.30179801E+00-4.74912051E-03 2.11582891E-05    3
-2.42763894E-08 9.29225124E-12 2.94808040E+02 3.71666245E+00                   4
H2O2              000000H   2O   2          G       300      5000    1000      1
 4.16500285E+00 4.90831694E-03-1.90139225E-06 3.71185986E-10-2.87908305E-14    2
-1.78617877E+04 2.91615662E+00 4.27611269E+00-5.42822417E-04 1.67335701E-05    3
-2.15770813E-08 8.62454363E-12-1.77025821E+04 3.43505074E+00                   4
CO                000000O   1C   1          G       300      5000    1000      1
 2.71518561E+00 2.06252743E-03-9.98825771E-07 2.30053008E-10-2.03647716E-14    2
-1.41518724E+04 7.81868772E+00 3.57953347E+00-6.10353680E-04 1.01681433E-06    3
 9.07005884E-10-9.04424499E-13-1.43440860E+04 3.50840928E+00                   4
CO2               000000O   2C   1          G       300      5000    1000      1
 3.85746029E+00 4.41437026E-03-2.21481404E-06 5.23490188E-10-4.72084164E-14    2
-4.87591660E+04 2.27163806E+00 2.35677352E+00 8.98459677E-03-7.12356269E-06    3
 2.45919022E-09-1.43699548E-13-4.83719697E+04 9.90105222E+00                   4
HCO               000000H   1O   1C   1     G       300      5000    1000      1
 2.77217438E+00 4.95695526E-03-2.48445613E-06 5.89161778E-10-5.33508711E-14    2
 4.01191815E+03 9.79834492E+00 4.22118584E+00-3.24392532E-03 1.37799446E-05    3
-1.33144093E-08 4.33768865E-12 3.83956496E+03 3.39437243E+00                   4
CH3               000000H   3C   1          G       300      5000    1000      1
 2.28571772E+00 7.23990037E-03-2.98714348E-06 5.95684644E-10-4.67154394E-14    2
 1.67755843E+04 8.48007179E+00 3.67359040E+00 2.01095175E-03 5.73021856E-06    3
-6.87117425E-09 2.54385734E-12 1.64449988E+04 1.60456433E+00                   4
CH4               000000H   4C   1          G       300      5000    1000      1
 7.48514950E-02 1.33909467E-02-5.73285809E-06 1.22292535E-09-1.01815230E-13    2
-9.46834459E+03 1.84373180E+01 5.14987613E+00-1.36709788E-02 4.91800599E-05    3
-4.84743026E-08 1.66693956E-11-1.02466476E+04-4.64130376E+00                   4
CH2O              000000H   2O   1C   1     G       300      5000    1000      1
 1.76069008E+00 9.20000082E-03-4.42258813E-06 1.00641212E-09-8.83855640E-14    2
-1.39958323E+04 1.36563230E+01 4.79372315E+00-9.90833369E-03 3.73220008E-05    3
-3.79285261E-08 1.31772652E-11-1.43089567E+04 6.02812900E-01                   4
T-CH2             000000H   2C   1          G       300      5000    1000      1
 2.87410113E+00 3.65639292E-03-1.40894597E-06 2.60179549E-10-1.87727567E-14    2
 4.62636040E+04 6.17119324E+00 3.76267867E+00 9.68872143E-04 2.79489841E-06    3
-3.85091153E-09 1.68741719E-12 4.60040401E+04 1.56253185E+00                   4
S-CH2             000000H   2C   1          G       300      5000    1000      1
 2.29203842E+00 4.65588637E-03-2.01191947E-06 4.17906000E-10-3.39716365E-14    2
 5.09259997E+04 8.62650169E+00 4.19860411E+00-2.36661419E-03 8.23296220E-06    3
-6.68815981E-09 1.94314737E-12 5.04968163E+04-7.69118967E-01                   4
C2H4              000000H   4C   2          G       300      5000    1000      1
 2.03611116E+00 1.46454151E-02-6.71077915E-06 1.47222923E-09-1.25706061E-13    2
 4.93988614E+03 1.03053693E+01 3.95920148E+00-7.57052247E-03 5.70990292E-05    3
-6.91588753E-08 2.69884373E-11 5.08977593E+03 4.09733096E+00                   4
CH3O              000000H   3O   1C   1     G       300      5000    1000      1
 4.75779238E+00 7.44142474E-03-2.69705176E-06 4.38090504E-10-2.63537098E-14    2
 3.90139164E+02-1.96680028E+00 3.71180502E+00-2.80463306E-03 3.76550971E-05    3
-4.73072089E-08 1.86588420E-11 1.30772484E+03 6.57240864E+00                   4
C2H5              000000H   5C   2          G       300      5000    1000      1
 1.95465642E+00 1.73972722E-02-7.98206668E-06 1.75217689E-09-1.49641576E-13    2
 1.28575200E+04 1.34624343E+01 4.30646568E+00-4.18658892E-03 4.97142807E-05    3
-5.99126606E-08 2.30509004E-11 1.28416265E+04 4.70720924E+00                   4
C2H6              000000H   6C   2          G       300      5000    1000      1
 1.07188150E+00 2.16852677E-02-1.00256067E-05 2.21412001E-09-1.90002890E-13    2
-1.14263932E+04 1.51156107E+01 4.29142492E+00-5.50154270E-03 5.99438288E-05    3
-7.08466285E-08 2.68685771E-11-1.15222055E+04 2.66682316E+00                   4
CH                000000H   1C   1          G       300      5000    1000      1
 2.87846473E+00 9.70913681E-04 1.44445655E-07-1.30687849E-10 1.76079383E-14    2
 7.10124364E+04 5.48497999E+00 3.48981665E+00 3.23835541E-04-1.68899065E-06    3
 3.16217327E-09-1.40609067E-12 7.07972934E+04 2.08401108E+00                   4
C2H2              000000H   2C   2          G       300      5000    1000      1
 4.14756964E+00 5.96166664E-03-2.37294852E-06 4.67412171E-10-3.61235213E-14    2
 2.59359992E+04-1.23028121E+00 8.08681094E-01 2.33615629E-02-3.55171815E-05    3
 2.80152437E-08-8.50072974E-12 2.64289807E+04 1.39397051E+01                   4
C2H4OOH           000000H   5O   2C   2     G       300      5000    1000      1
 1.16258666E+01 1.00826346E-02-3.47934362E-06 5.43394220E-10-3.16569294E-14    2
-9.10568267E+02-3.18522902E+01 8.13237801E-01 3.90063400E-02-3.40643855E-05    3
 1.55066226E-08-2.84069840E-12 2.50785787E+03 2.49684459E+01                   4
OC2H3OOH          000000H   4O   3C   2     G       300      5000    1000      1
 1.24064339E+01 9.47233784E-03-3.28107928E-06 5.13772211E-10-2.99872803E-14    2
-3.49123142E+04-3.39479874E+01 5.52382546E+00 2.42068306E-02-1.52898974E-05    3
 5.01728362E-09-6.96406358E-13-3.23406789E+04 3.57240645E+00                   4
C2H3              000000H   3C   2          G       300      5000    1000      1
 3.01672400E+00 1.03302292E-02-4.68082349E-06 1.01763288E-09-8.62607041E-14    2
 3.46128739E+04 7.78732378E+00 3.21246645E+00 1.51479162E-03 2.59209412E-05    3
-3.57657847E-08 1.47150873E-11 3.48598468E+04 8.51054025E+00                   4
CH2CHO            000000H   3O   1C   2     G       300      5000    1000      1
 5.16620060E+00 1.08478260E-02-4.46583680E-06 8.06285480E-10-4.84101930E-14    2
-7.31993470E+02-1.96333610E+00 1.01340010E+00 2.26814670E-02-1.57339440E-05    3
 4.04915030E-09 2.95990120E-13 3.80428530E+02 1.93565520E+01                   4
C2H4O             000000H   4O   1C   2     G       300      5000    1000      1
 5.40411080E+00 1.17230590E-02-4.22631370E-06 6.83724510E-10-4.09848630E-14    2
-2.25931220E+04-3.48079170E+00 4.72945950E+00-3.19328580E-03 4.75349210E-05    3
-5.74586110E-08 2.19311120E-11-2.15728780E+04 4.10301590E+00                   4
HCCO              000000H   1O   1C   2     G       300      5000    1000      1
 5.62820580E+00 4.08534010E-03-1.59345470E-06 2.86260520E-10-1.94078320E-14    2
 1.93272150E+04-3.93025950E+00 2.25172140E+00 1.76550210E-02-2.37291010E-05    3
 1.72757590E-08-5.06648110E-12 2.00594490E+04 1.24904170E+01                   4
CH2CO             000000H   2O   1C   2     G       300      5000    1000      1
 4.51129732E+00 9.00359745E-03-4.16939635E-06 9.23345882E-10-7.94838201E-14    2
-7.55105311E+03 6.32247205E-01 2.13583630E+00 1.81188721E-02-1.73947474E-05    3
 9.34397568E-09-2.01457615E-12-7.04291804E+03 1.22156480E+01                   4
C2H               000000H   1C   2          G       300      5000    1000      1
 3.16780652E+00 4.75221902E-03-1.83787077E-06 3.04190252E-10-1.77232770E-14    2
 6.71210650E+04 6.63589475E+00 2.88965733E+00 1.34099611E-02-2.84769501E-05    3
 2.94791045E-08-1.09331511E-11 6.68393932E+04 6.22296438E+00                   4
CH2OH             000000H   3O   1C   1     G       300      5000    1000      1
 5.09312037E+00 5.94758550E-03-2.06496524E-06 3.23006703E-10-1.88125052E-14    2
-4.05813228E+03-1.84690613E+00 4.47832317E+00-1.35069687E-03 2.78483707E-05    3
-3.64867397E-08 1.47906775E-11-3.52476728E+03 3.30911984E+00                   4
CH3OH             000000H   4O   1C   1     G       300      5000    1000      1
 1.78970791E+00 1.40938292E-02-6.36500835E-06 1.38171085E-09-1.17060220E-13    2
-2.53748747E+04 1.45023623E+01 5.71539582E+00-1.52309129E-02 6.52441155E-05    3
-7.10806889E-08 2.61352698E-11-2.56427656E+04-1.50409823E+00                   4
CH3CHO            000000H   4O   1C   2     G       300      5000    1000      1
 5.40411080E+00 1.17230590E-02-4.22631370E-06 6.83724510E-10-4.09848630E-14    2
-2.25931220E+04-3.48079170E+00 4.72945950E+00-3.19328580E-03 4.75349210E-05    3
-5.74586110E-08 2.19311120E-11-2.15728780E+04 4.10301590E+00                   4
CH3CO             000000H   3O   1C   2     G       300      5000    1000      1
 5.94477310E+00 7.86672050E-03-2.88658820E-06 4.72708750E-10-2.85998610E-14    2
-3.78730750E+03-5.01367510E+00 4.16342570E+00-2.32616100E-04 3.42678200E-05    3
-4.41052270E-08 1.72756120E-11-2.65745290E+03 7.34682800E+00                   4
C2H5OH            000000H   6O   1C   2     G       300      5000    1000      1
 4.34717120E+00 1.86288000E-02-6.77946700E-06 8.16592600E-10 0.00000000E+00    2
-3.06615743E+04 3.24247304E+00 5.76535800E-01 2.89451200E-02-1.61002000E-05    3
 3.59164100E-09 0.00000000E+00-2.96359500E+04 2.27081300E+01                   4
CH2CH2OH          000000H   5O   1C   2     G       300      5000    1000      1
 7.52244726E+00 1.10492715E-02-3.72576465E-06 5.72827397E-10-3.30061759E-14    2
-7.29337464E+03-1.24960750E+01 1.17714711E+00 2.48115685E-02-1.50299503E-05    3
 4.79006785E-09-6.40994211E-13-4.95369043E+03 2.20081586E+01                   4
CH3CHOH           000000H   5O   1C   2     G       300      5000    1000      1
 7.26570301E+00 1.09588926E-02-3.63662803E-06 5.53659830E-10-3.17012322E-14    2
-8.64371441E+03-1.06822851E+01 1.83974631E+00 1.87789371E-02-4.60544253E-06    3
-2.13116990E-09 9.43772653E-13-6.29595195E+03 2.01446141E+01                   4
CH3CH2O           000000H   5O   1C   2     G       300      5000    1000      1
 8.31182392E+00 1.03426319E-02-3.39186089E-06 5.12212617E-10-2.91601713E-14    2
-6.13097954E+03-2.13985581E+01-2.71296378E-01 2.98839812E-02-1.97090548E-05    3
 6.37339893E-09-7.77965054E-13-3.16397196E+03 2.47706003E+01                   4
C3H4              000000H   4C   3          G       300      5000    1000      1
 6.31687220E+00 1.11337280E-02-3.96293780E-06 6.35642380E-10-3.78755400E-14    2
 2.01174950E+04-1.09957660E+01 2.61304450E+00 1.21225750E-02 1.85398800E-05    3
-3.45251490E-08 1.53350790E-11 2.15415670E+04 1.02261390E+01                   4
C3H3              000000H   3C   3          G       300      5000    1000      1
 7.14221880E+00 7.61902005E-03-2.67459950E-06 4.24914801E-10-2.51475415E-14    2
 3.89087427E+04-1.25848436E+01 1.35110927E+00 3.27411223E-02-4.73827135E-05    3
 3.76309808E-08-1.18540923E-11 4.01057783E+04 1.52058924E+01                   4
C3H5              000000H   5C   3          G       300      5000    1000      1
 6.50078770E+00 1.43247310E-02-5.67816320E-06 1.10808010E-09-9.03638870E-14    2
 1.74824490E+04-1.12430500E+01 1.36318350E+00 1.98138210E-02 1.24970600E-05    3
-3.33555550E-08 1.58465710E-11 1.92456290E+04 1.71732140E+01                   4
C3H6              000000H   6C   3          G       300      5000    1000      1
 6.73225700E+00 1.49083400E-02-4.94989900E-06 7.21202200E-10-3.76620400E-14    2
-9.23570300E+02-1.33133500E+01 1.49330700E+00 2.09251800E-02 4.48679400E-06    3
-1.66891200E-08 7.15814600E-12 1.07482600E+03 1.61453400E+01                   4
C3H8              000000H   8C   3          G       300      5000    1000      1
 7.52441520E+00 1.88982820E-02-6.29210410E-06 9.21614570E-10-4.86844780E-14    2
-1.65643940E+04-1.78383750E+01 9.28510930E-01 2.64605660E-02 6.03324460E-06    3
-2.19149530E-08 9.49615440E-12-1.40579070E+04 1.92255380E+01                   4
I-C3H7            000000H   7C   3          G       300      5000    1000      1
 6.51927410E+00 1.72201040E-02-5.73642170E-06 8.41307320E-10-4.45659130E-14    2
 7.32271930E+03-9.08302150E+00 1.44491990E+00 2.09991120E-02 7.70362220E-06    3
-1.84762530E-08 7.12829620E-12 9.42237240E+03 2.01163170E+01                   4
N-C3H7            000000H   7C   3          G       300      5000    1000      1
 7.70974790E+00 1.60314850E-02-5.27202380E-06 7.58883520E-10-3.88627190E-14    2
 7.97622360E+03-1.55152970E+01 1.04911730E+00 2.60089730E-02 2.35425160E-06    3
-1.95951320E-08 9.37202070E-12 1.03123460E+04 2.11360340E+01                   4
C3H6OOH           000000H   7O   2C   3     G       300      5000    1000      1
 1.46139980E+01 1.43723015E-02-4.88635144E-06 7.56519620E-10-4.38364992E-14    2
-6.46101457E+03-4.57478245E+01 1.91005011E+00 4.11666833E-02-2.51630217E-05    3
 7.11856873E-09-6.98838732E-13-1.79305093E+03 2.34514457E+01                   4
OC3H5OOH          000000H   6O   3C   3     G       300      5000    1000      1
 1.70285271E+01 1.30716784E-02-4.59310856E-06 7.26135156E-10-4.26658337E-14    2
-4.16334217E+04-5.92513577E+01 7.68933034E-01 5.46905880E-02-4.65072405E-05    3
 2.03159585E-08-3.58398999E-12-3.63238861E+04 2.68291637E+01                   4
JP10                    C  10H  16O   00   0G   300.00   5000.00  1000.00      1
-4.78290200E+00 9.08977000E-02-4.73497000E-05 9.36283900E-09-3.17350600E-12    2
-9.13640100E+03-1.59228000E+01-4.78290200E+00 9.08977000E-02-4.73497000E-05    3
 9.36283900E-09-3.17350600E-12-9.13640100E+03-1.59228000E+01                   4
CHO               L12/89H   1C   1O   1   00G   200.000  3500.000  1000.000    1
 2.77217438E+00 4.95695526E-03-2.48445613E-06 5.89161778E-10-5.33508711E-14    2
 4.01191815E+03 9.79834492E+00 4.22118584E+00-3.24392532E-03 1.37799446E-05    3
-1.33144093E-08 4.33768865E-12 3.83956496E+03 3.39437243E+00 9.98945000E+03    4
C5H8              T 2/90C   5H   8    0    0G   200.000  5000.000 1000.        1
 0.77244792E+01 0.28322316E-01-0.11545236E-04 0.21540815E-08-0.15054178E-12    2
-0.78261573E+03-0.19769698E+02 0.26898140E+01 0.20954550E-02 0.11303687E-03    3
-0.15408070E-06 0.62763658E-10 0.23139663E+04 0.15294056E+02                   4
C3H5              PD5/98C   3H   5    0    0G   300.000  3000.000              1
 0.65007877E+01 0.14324731E-01-0.56781632E-05 0.11080801E-08-0.90363887E-13    2
 0.17482449E+05-0.11243050E+02 0.13631835E+01 0.19813821E-01 0.12497060E-04    3
-0.33355555E-07 0.15846571E-10 0.19245629E+05 0.17173214E+02                   4
C7H16        000000N   0AR  0C   7H  16O   0G    300     5000     1000         1
 5.15327664E+00 6.58448144E-02-2.99765849E-05 5.12173194E-09 0.00000000E+00    2
-2.73334877E+04 2.64465624E+00-1.49861609E+00 8.56446777E-02-5.10778379E-05    3
 1.45322121E-08-1.45719946E-12-2.56089558E+04 3.65725432E+01                   4
C5H10        000000N   0AR  0C   5H  10O   0G    300     5000     1000         1
 4.62768794E+00 3.99163471E-02-1.76584355E-05 2.94527974E-09 0.00000000E+00    2
-5.90930391E+03 3.39515508E+00-1.36099451E+00 5.87684877E-02-3.93332993E-05    3
 1.36933176E-08-1.93663167E-12-4.42142034E+03 3.36502744E+01                   4
C4H8                    C   4H   80   00   0G   300.00   5000.00  1000.00      1
 0.20535840E+01 0.34350500E-01-0.15883196E-04 0.33089660E-08-0.25361040E-12    2
-0.21397230E+04 0.15543201E+02 0.11811380E+01 0.30853380E-01 0.50865240E-05    3
-0.24654880E-07 0.11110192E-10-0.17904000E+04 0.21062470E+02                   4
C4H6                    C   4H   60   00   0G   300.00   3000.00  1000.00      1
 0.98438620E+01 0.15445170E-01-0.57172000E-05 0.10145160E-08-0.68655930E-13    2
 0.90772280E+04-0.28003430E+02 0.11107870E+02-0.63027940E-02 0.53619200E-04    3
-0.59145190E-07 0.21238630E-10 0.96868770E+04-0.29928690E+02                   4
HCN               L 7/88H   1C   1N   1    0G   200.000  6000.000 1000.        1
 0.38022392E+01 0.31464227E-02-0.10632185E-05 0.16619757E-09-0.97997567E-14    2
 0.14910512E+05 0.15754601E+01 0.22589885E+01 0.10051170E-01-0.13351763E-04    3
 0.10092349E-07-0.30089029E-11 0.15215853E+05 0.89164418E+01 0.16236675E+05    4
N                 120186N   1               G  0300.00   5000.00  1000.00      1
 0.02450268E+02 0.10661458E-03-0.07465337E-06 0.01879652E-09-0.10259839E-14    2
 0.05611604E+06 0.04448758E+02 0.02503071E+02-0.02180018E-03 0.05420529E-06    3
-0.05647560E-09 0.02099904E-12 0.05609890E+06 0.04167566E+02                   4
NCO               EA 93 N   1C   1O   1     G   200.000  6000.000  1000.000    1
 0.51521845E+01 0.23051761E-02-0.88033153E-06 0.14789098E-09-0.90977996E-14    2
 0.14004123E+05-0.25442660E+01 0.28269308E+01 0.88051688E-02-0.83866134E-05    3
 0.48016964E-08-0.13313595E-11 0.14682477E+05 0.95504646E+01                   4
HNCO              T 6/94H   1N   1C   1O   1G   200.000  6000.000 1000.        1
 0.52936894E+01 0.40307770E-02-0.14130589E-05 0.22445562E-09-0.13287683E-13    2
-0.15973489E+05-0.30864710E+01 0.22432188E+01 0.14491349E-01-0.15236174E-04    3
 0.83345851E-08-0.17104033E-11-0.15233708E+05 0.12157321E+02-0.14039745E+05    4
NH                L11/89N   1H   1    0    0G   200.000  6000.000 1000.        1
 0.27836929E+01 0.13298429E-02-0.42478047E-06 0.78348504E-10-0.55044470E-14    2
 0.42134514E+05 0.57407798E+01 0.34929084E+01 0.31179197E-03-0.14890484E-05    3
 0.24816442E-08-0.10356967E-11 0.41894294E+05 0.18483277E+01 0.42940822E+05    4
NH2               L12/89N   1H   2    0    0G   200.000  6000.000 1000.        1
 0.28476611E+01 0.31428453E-02-0.89866557E-06 0.13032357E-09-0.74885356E-14    2
 0.21823916E+05 0.64718133E+01 0.42055601E+01-0.21355282E-02 0.72682021E-05    3
-0.59302799E-08 0.18067218E-11 0.21535223E+05-0.14663231E+00 0.22747541E+05    4
CN                T 6/94C   1N   1    0    0G   200.000  6000.000 1000.        1
 0.37459804E+01 0.43450773E-04 0.29705984E-06-0.68651804E-10 0.44134174E-14    2
 0.52353188E+05 0.27867600E+01 0.36129350E+01-0.95551327E-03 0.21442976E-05    3
-0.31516324E-09-0.46430356E-12 0.52525340E+05 0.39804995E+01 0.52571034E+05    4
HCN               L 7/88H   1C   1N   1    0G   200.000  6000.000 1000.        1
 0.38022392E+01 0.31464227E-02-0.10632185E-05 0.16619757E-09-0.97997567E-14    2
 0.14910512E+05 0.15754601E+01 0.22589885E+01 0.10051170E-01-0.13351763E-04    3
 0.10092349E-07-0.30089029E-11 0.15215853E+05 0.89164418E+01 0.16236675E+05    4
N2O               L 7/88N   2O   1    0    0G   200.000  6000.000 1000.        1
 0.48230729E+01 0.26270251E-02-0.95850872E-06 0.16000712E-09-0.97752302E-14    2
 0.80734047E+04-0.22017208E+01 0.22571502E+01 0.11304728E-01-0.13671319E-04    3
 0.96819803E-08-0.29307182E-11 0.87417746E+04 0.10757992E+02 0.98141682E+04    4
HNO               L12/89H   1N   1O   1    0G   200.000  3500.000 1000.        1
 0.31655229E+01 0.30000862E-02-0.39436619E-06-0.38575815E-10 0.70807189E-14    2
 0.11194426E+05 0.76477833E+01 0.45352475E+01-0.56853972E-02 0.18519850E-04    3
-0.17188273E-07 0.55583207E-11 0.11039881E+05 0.17431919E+01 0.12271645E+05    4
NH3  AMONIA       RUS 89N   1H   3    0    0G   200.000  6000.000 1000.        1
 2.71709692E+00 5.56856338E-03-1.76886396E-06 2.67417260E-10-1.52731419E-14    2
-6.58451989E+03 6.09289837E+00 4.30177808E+00-4.77127330E-03 2.19341619E-05    3
-2.29856489E-08 8.28992268E-12-6.74806394E+03-6.90644393E-01-5.52528050E+03    4
NO2               L 7/88N   1O   2    0    0G   200.000  6000.000 1000.        1
 0.48847540E+01 0.21723955E-02-0.82806909E-06 0.15747510E-09-0.10510895E-13    2
 0.23164982E+04-0.11741695E+00 0.39440312E+01-0.15854290E-02 0.16657812E-04    3
-0.20475426E-07 0.78350564E-11 0.28966180E+04 0.63119919E+01 0.41124701E+04    4
N2H               T07/93N   2H   1    0    0G   200.000  6000.000 1000.        1
 0.37667545E+01 0.28915081E-02-0.10416620E-05 0.16842594E-09-0.10091896E-13    2
 0.28650697E+05 0.44705068E+01 0.43446927E+01-0.48497072E-02 0.20059459E-04    3
-0.21726464E-07 0.79469538E-11 0.28791973E+05 0.29779411E+01 0.30009829E+05    4
NO                RUS 89N   1O   1    0    0G   200.000  6000.000 1000.        1
 3.26071234E+00 1.19101135E-03-4.29122646E-07 6.94481463E-11-4.03295681E-15    2
 9.92143132E+03 6.36900518E+00 4.21859896E+00-4.63988124E-03 1.10443049E-05    3
-9.34055507E-09 2.80554874E-12 9.84509964E+03 2.28061001E+00 1.09770882E+04    4
C4H10      8/ 4/ 4 THERMC   4H  10    0    0G   300.000  5000.000 1392.000    31
 1.24940183E+01 2.17726258E-02-7.44272215E-06 1.15487023E-09-6.69712949E-14    2
-2.18403437E+04-4.45558921E+01-4.55756824E-01 4.80323389E-02-2.65497552E-05    3
 6.92544700E-09-6.38317504E-13-1.68960904E+04 2.64870966E+01                   4
PC4H9      8/ 4/ 4 THERMC   4H   9    0    0G   300.000  5000.000 1391.000    31
 1.20779744E+01 1.96264778E-02-6.71302199E-06 1.04206424E-09-6.04469282E-14    2
 3.22550473E+03-3.87719384E+01 3.20730933E-01 4.34654454E-02-2.40584970E-05    3
 6.28245308E-09-5.80113166E-13 7.71490893E+03 2.57301085E+01                   4
SC4H9      8/ 4/ 4 THERMC   4H   9    0    0G   300.000  5000.000 1381.000    31
 1.16934304E+01 1.96402287E-02-6.65306517E-06 1.02631895E-09-5.92826294E-14    2
 1.96382429E+03-3.61626672E+01 8.49159986E-01 3.82085320E-02-1.49626797E-05    3
 2.04499211E-10 8.24254437E-13 6.38832956E+03 2.44466606E+01                   4
PC4H9O2    7/19/ 0 THERMC   4H   9O   2    0G   300.000  5000.000 1385.000    41
 1.57845448E+01 2.15210910E-02-7.44909017E-06 1.16558071E-09-6.79885609E-14    2
-1.60146054E+04-5.40388525E+01 1.94363650E+00 5.15513163E-02-3.28284400E-05    3
 1.13064860E-08-1.70118606E-12-1.08358103E+04 2.13503149E+01                   4
SC4H9O2    7/19/ 0 THERMC   4H   9O   2    0G   300.000  5000.000 1389.000    41
 1.64031135E+01 2.09361006E-02-7.23393011E-06 1.13058996E-09-6.58938667E-14    2
-1.85074517E+04-5.77331636E+01 1.32689044E+00 5.62785583E-02-4.01717786E-05    3
 1.57120967E-08-2.62948443E-12-1.31557057E+04 2.34069659E+01                   4
C4H8OOH1-3 7/19/ 0 THERMC   4H   9O   2    0G   300.000  5000.000 1377.000    51
 1.76442170E+01 1.91706536E-02-6.57168641E-06 1.02246571E-09-5.94304735E-14    2
-1.01859280E+04-6.17115813E+01 1.94106276E+00 5.18789351E-02-3.10411683E-05    3
 8.63568881E-09-8.42841994E-13-4.34315962E+03 2.40230471E+01                   4
C4H8OOH1-3O2 7/19/ 0 TRMC   4H   9O   4    0G   300.000  5000.000 1387.000    61
 2.23244015E+01 2.05474775E-02-7.19076348E-06 1.13361536E-09-6.64744383E-14    2
-3.05468277E+04-8.32666070E+01 2.22400728E+00 7.04994620E-02-5.66978827E-05    3
 2.42627751E-08-4.29715459E-12-2.37391490E+04 2.38371533E+01                   4
NC4KET13   7/19/ 0 THERMC   4H   8O   3    0G   300.000  5000.000 1386.000    51
 1.96430808E+01 1.80940566E-02-6.33063232E-06 9.97860399E-10-5.85076458E-14    2
-4.59588851E+04-7.16905094E+01 2.74883461E+00 5.86936745E-02-4.49605895E-05    3
 1.83200130E-08-3.11765369E-12-4.01065878E+04 1.88072090E+01                   4
C7H14                   C   7H  14          G    300.00   5000.00 1390.00      1
 .206190401E+02 .314852991E-01-.107162057E-04 .165827662E-08-.959911785E-13    2
-.196710875E+05-.822507478E+02-.116533279E+01 .790439806E-01-.496101666E-04    3
 .158569009E-07-.205346433E-11-.117362359E+05 .359871070E+02                   4
NC7H15                  C   7H  15          G    300.00   5000.00 1382.00      1
 .216371448E+02 .323324804E-01-.109273807E-04 .168357060E-08-.971774091E-13    2
-.105877217E+05-.852228493E+02-.379155767E-01 .756726570E-01-.407473634E-04    3
 .932678943E-08-.492360745E-12-.235605303E+04 .337321506E+02                   4
NC7-QOOH    7/19/0 thermC   7H  15O   2    0G   300.000  5000.000 1389.000    81
 2.74034778e+01 3.27527893e-02-1.12991770e-05 1.76444649e-09-1.02786945e-13    2
-2.48636651e+04-1.10201978e+02 8.49786005e-01 9.25107196e-02-6.25359834e-05    3
 2.17880390e-08-3.12720398e-12-1.53640679e+04 3.32997487e+01                   4
NC7-OQOOH  7/19/ 0 thermC   7H  14O   3    0G   300.000  5000.000 1387.000    81
 2.88330388e+01 3.20168096e-02-1.11508456e-05 1.75226159e-09-1.02520451e-13    2
-6.20142474e+04-1.17499704e+02 1.52936692e+00 9.58173466e-02-6.96688520e-05    3
 2.69540382e-08-4.38728126e-12-5.23839542e+04 2.93851334e+01                   4
CH3OCH3           AK0904C   2H   6O   1    0G   270.000  3000.000  710.00      1
 8.30815546E-01 2.69173263E-02-1.38874777E-05 3.47515079E-09-3.41706784E-13    2
-2.34120975E+04 2.02174360E+01 5.68097447E+00-5.39434751E-03 6.49472750E-05    3
-8.05065318E-08 3.27474018E-11-2.39755455E+04-6.36955496E-01                   4
CH3OCH2    7/20/98 THERMC   2H   5O   1    0G   300.000  5000.000 1376.000    21
 8.17137842E+00 1.10086181E-02-3.82352277E-06 5.99637202E-10-3.50317513E-14    2
-3.41941605E+03-1.78650856E+01 2.91327415E+00 2.03364659E-02-9.59712342E-06    3
 2.07478525E-09-1.71343362E-13-1.18844240E+03 1.16066817E+01                   4
CH3OCH2O2  7/20/98 THERMC   2H   5O   3    0G   300.000  5000.000 1389.000    31
 1.24249729E+01 1.18705986E-02-4.07906532E-06 6.35310809E-10-3.69427867E-14    2
-2.29679238E+04-3.53740145E+01 2.21029612E+00 3.68877454E-02-2.82561555E-05    3
 1.15730533E-08-1.97130470E-12-1.94940940E+04 1.91463601E+01                   4
CH2OCH2O2H 7/20/98 THERMC   2H   5O   3    0G   300.000  5000.000 1393.000    41
 1.51191783E+01 9.23718883E-03-3.19127505E-06 4.99114678E-10-2.91162488E-14    2
-1.84114867E+04-4.85706618E+01 2.52895507E+00 4.24128290E-02-3.73406386E-05    3
 1.66639333E-08-2.96443312E-12-1.44293306E+04 1.76899251E+01                   4
HCOOH      7/ 1/99 THERMC   1H   2O   2    0G   300.000  5000.000 1376.000    11
 6.68733013e+00 5.14289368e-03-1.82238513e-06 2.89719163e-10-1.70892199e-14    2
-4.83995400e+04-1.13104798e+01 1.43548185e+00 1.63363016e-02-1.06257421e-05    3
 3.32132977e-09-4.02176103e-13-4.64616504e+04 1.72885798e+01                   4
HOCH2OCO   8/31/99 THERMC   2H   3O   3    0G   300.000  5000.000 1603.000    31
 1.13737391E+01 8.17663898E-03-2.92034021E-06 4.66695616E-10-2.76276823E-14    2
-4.65575743E+04-2.86035265E+01 6.08180801E+00 1.28768359E-02 2.04419418E-06    3
-6.10154921E-09 1.79820559E-12-4.39526183E+04 2.54054449E+00                   4
HOCH2O     8/ 4/99 THERMC   1H   3O   2    0G   300.000  5000.000 1452.000     1
 6.39521515E+00 7.43673043E-03-2.50422354E-06 3.84879712E-10-2.21778689E-14    2
-2.47500385E+04-7.29290847E+00 4.11183145E+00 7.53850697E-03 3.77337370E-06    3
-5.38746005E-09 1.45615887E-12-2.34414546E+04 6.81381989E+00                   4
HO2CH2OCHO 8/31/99 THERMC   2H   4O   4    0G   300.000  5000.000 1387.000    41
 1.64584298E+01 8.52683511E-03-3.04113500E-06 4.85596908E-10-2.87316334E-14    2
-6.23959608E+04-5.38924139E+01 3.47935703E+00 4.02952392E-02-3.30109296E-05    3
 1.34360117E-08-2.18601580E-12-5.80629934E+04 1.52521392E+01                   4
O2CH2OCH2O2H 7/20/98 TRMC   2H   5O   5    0G   300.000  5000.000 1402.000    51