units(length='cm', time='s', quantity='ndens', act_energy='K')

ideal_gas(name='mymech',
          elements="E N O H Ar He",
          species="""N2             O2             N              O              O3             
                     NO             NO2            N2O            NO3            N2O3           
                     N2O4           N2O5           H2             H              OH             
                     HO2            H2O2           H2O            AR             HE             
                     N2(v1)         N2(v2)         N2(v3)         N2(v4)         
                     N2(v5)         N2(v6)         N2(v7)         N2(v8)         N2(A3Sigma)    
                     N2(B3Pi)       N2(Bp3Sigma)   N2(W3Delta)    N2(a1Pi)       N2(ap1Sigma)   
                     N2(app1Sigma)  N2(w1Delta)    N2(C3Pi)       N2(E3Sigma)    N2+            
                     O2(v1)         O2(v2)         O2(v3)         O2(v4)         O2(a1Delta)    
                     O2(b1Sigma)    O2+            N(2D)          N(2P)          O(1S)          
                     O(1D)          NH             H2(v1)         H2(v2)         H2(v3)         
                     H2+            E""",
          reactions='all',
          initial_state=state(temperature=300.0, pressure=OneAtm))

#-------------------------------------------------------------------------------
# Species data
#-------------------------------------------------------------------------------

species(name='N2',
        atoms='N:2',
        thermo=(NASA([200.00, 1000.00],
                     [ 3.53096280E+00, -1.23659500E-04, -5.02993390E-07,
                       2.43527680E-09, -1.40879540E-12, -1.04696370E+03,
                       2.96743910E+00]),
                NASA([1000.00, 6000.00],
                     [ 2.95254070E+00,  1.39688380E-03, -4.92625770E-07,
                       7.86000910E-11, -4.60749780E-15, -9.23937530E+02,
                       5.87182210E+00])),
        note='REFELEMENTRUS78')

species(name='O2',
        atoms='O:2',
        thermo=(NASA([200.00, 1000.00],
                     [ 3.78245636E+00, -2.99673415E-03,  9.84730200E-06,
                      -9.68129508E-09,  3.24372836E-12, -1.06394356E+03,
                       3.65767573E+00]),
                NASA([1000.00, 6000.00],
                     [ 3.66096083E+00,  6.56365523E-04, -1.41149485E-07,
                       2.05797658E-11, -1.29913248E-15, -1.21597725E+03,
                       3.41536184E+00])),
        note='REFELEMENTRUS89')

species(name='N',
        atoms='N:1',
        thermo=(NASA([200.00, 1000.00],
                     [ 2.50000000E+00,  0.00000000E+00,  0.00000000E+00,
                       0.00000000E+00,  0.00000000E+00,  5.61046380E+04,
                       4.19390880E+00]),
                NASA([1000.00, 6000.00],
                     [ 2.41594290E+00,  1.74890650E-04, -1.19023690E-07,
                       3.02262440E-11, -2.03609830E-15,  5.61337750E+04,
                       4.64960950E+00])),
        note='L6/88')

species(name='O',
        atoms='O:1',
        thermo=(NASA([200.00, 1000.00],
                     [ 3.16826710E+00, -3.27931884E-03,  6.64306396E-06,
                      -6.12806624E-09,  2.11265971E-12,  2.91222592E+04,
                       2.05193346E+00]),
                NASA([1000.00, 6000.00],
                     [ 2.54363697E+00, -2.73162486E-05, -4.19029520E-09,
                       4.95481845E-12, -4.79553694E-16,  2.92260120E+04,
                       4.92229457E+00])),
        note='L1/90')

species(name='O3',
        atoms='O:3',
        thermo=(NASA([300.00, 1000.00],
                     [ 2.46260800E+00,  9.58278100E-03, -7.08735900E-06,
                       1.36336830E-09,  2.96964700E-13,  1.60615220E+04,
                       1.21418700E+01]),
                NASA([1000.00, 5000.00],
                     [ 5.42937100E+00,  1.82038000E-03, -7.70560700E-07,
                       1.49929290E-10, -1.07556290E-14,  1.52352670E+04,
                      -3.26638600E+00])),
        note='121286')

species(name='NO',
        atoms='O:1 N:1',
        thermo=(NASA([200.00, 1000.00],
                     [ 4.21859896E+00, -4.63988124E-03,  1.10443049E-05,
                      -9.34055507E-09,  2.80554874E-12,  9.84509964E+03,
                       2.28061001E+00]),
                NASA([1000.00, 6000.00],
                     [ 3.26071234E+00,  1.19101135E-03, -4.29122646E-07,
                       6.94481463E-11, -4.03295681E-15,  9.92143132E+03,
                       6.36900518E+00])),
        note='RUS89')

species(name='NO2',
        atoms='O:2 N:1',
        thermo=(NASA([200.00, 1000.00],
                     [ 3.94403120E+00, -1.58542900E-03,  1.66578120E-05,
                      -2.04754260E-08,  7.83505640E-12,  2.89661800E+03,
                       6.31199190E+00]),
                NASA([1000.00, 6000.00],
                     [ 4.88475400E+00,  2.17239550E-03, -8.28069090E-07,
                       1.57475100E-10, -1.05108950E-14,  2.31649820E+03,
                      -1.17416950E-01])),
        note='L7/88')

species(name='N2O',
        atoms='O:1 N:2',
        thermo=(NASA([200.00, 1000.00],
                     [ 2.25715020E+00,  1.13047280E-02, -1.36713190E-05,
                       9.68198030E-09, -2.93071820E-12,  8.74177460E+03,
                       1.07579920E+01]),
                NASA([1000.00, 6000.00],
                     [ 4.82307290E+00,  2.62702510E-03, -9.58508720E-07,
                       1.60007120E-10, -9.77523020E-15,  8.07340470E+03,
                      -2.20172080E+00])),
        note='L7/88')

species(name='NO3',
        atoms='O:3 N:1',
        thermo=(NASA([200.00, 1000.00],
                     [ 2.17359310E+00,  1.04902697E-02,  1.10472650E-05,
                      -2.81561854E-08,  1.36583958E-11,  7.39219877E+03,
                       1.46022098E+01]),
                NASA([1000.00, 6000.00],
                     [ 7.48347734E+00,  2.57772041E-03, -1.00945831E-06,
                       1.72314072E-10, -1.07154015E-14,  5.70919428E+03,
                      -1.41618155E+01])),
        note='J12/64')

species(name='N2O3',
        atoms='O:3 N:2',
        thermo=(NASA([200.00, 1000.00],
                     [ 5.81083964E+00,  1.43330962E-02, -1.96208597E-05,
                       1.73060735E-08, -6.46553954E-12,  8.19184453E+03,
                       1.20461321E+00]),
                NASA([1000.00, 6000.00],
                     [ 9.08583845E+00,  3.37756330E-03, -1.31583890E-06,
                       2.30762329E-10, -1.47151267E-14,  7.27160146E+03,
                      -1.55361904E+01])),
        note='L4/90')

species(name='N2O4',
        atoms='O:4 N:2',
        thermo=(NASA([200.00, 1000.00],
                     [ 3.02002308E+00,  2.95904321E-02, -3.01342458E-05,
                       1.42360407E-08, -2.44100049E-12, -6.40040162E+02,
                       1.18059606E+01]),
                NASA([1000.00, 6000.00],
                     [ 1.15752899E+01,  4.01616086E-03, -1.57178323E-06,
                       2.68274309E-10, -1.66922019E-14, -2.92191226E+03,
                      -3.19488439E+01])),
        note='RUS89')

species(name='N2O5',
        atoms='O:5 N:2',
        thermo=(NASA([200.00, 1000.00],
                     [ 3.68767444E+00,  3.92120798E-02, -5.53770029E-05,
                       4.20097833E-08, -1.31260710E-11, -8.30291184E+02,
                       1.21967866E+01]),
                NASA([1000.00, 6000.00],
                     [ 1.31108082E+01,  4.87435791E-03, -1.87548389E-06,
                       3.16374121E-10, -1.95926845E-14, -3.11634700E+03,
                      -3.46877692E+01])),
        note='L4/90')

species(name='H2',
        atoms='H:2',
        thermo=(NASA([200.00, 1000.00],
                     [ 2.34430290E+00,  7.98042480E-03, -1.94779170E-05,
                       2.01569670E-08, -7.37602890E-12, -9.17924130E+02,
                       6.83002180E-01]),
                NASA([1000.00, 6000.00],
                     [ 2.93283050E+00,  8.26598020E-04, -1.46400570E-07,
                       1.54098510E-11, -6.88796150E-16, -8.13055820E+02,
                      -1.02431640E+00])),
        note='REFELEMENTRUS78')

species(name='H',
        atoms='H:1',
        thermo=(NASA([200.00, 1000.00],
                     [ 2.50000000E+00,  0.00000000E+00,  0.00000000E+00,
                       0.00000000E+00,  0.00000000E+00,  2.54736600E+04,
                      -4.46682850E-01]),
                NASA([1000.00, 6000.00],
                     [ 2.50000000E+00,  0.00000000E+00,  0.00000000E+00,
                       0.00000000E+00,  0.00000000E+00,  2.54736600E+04,
                      -4.46682850E-01])),
        note='L6/94')

species(name='OH',
        atoms='H:1 O:1',
        thermo=(NASA([200.00, 1000.00],
                     [ 3.99201543E+00, -2.40131752E-03,  4.61793841E-06,
                      -3.88113333E-09,  1.36411470E-12,  3.61508056E+03,
                      -1.03925458E-01]),
                NASA([1000.00, 6000.00],
                     [ 2.83864607E+00,  1.10725586E-03, -2.93914978E-07,
                       4.20524247E-11, -2.42169092E-15,  3.94395852E+03,
                       5.84452662E+00])),
        note='RUS78')

species(name='HO2',
        atoms='H:1 O:2',
        thermo=(NASA([200.00, 1000.00],
                     [ 4.30178800E+00, -4.74902010E-03,  2.11579530E-05,
                      -2.42759610E-08,  9.29206700E-12,  2.94808760E+02,
                       3.71670100E+00]),
                NASA([1000.00, 6000.00],
                     [ 4.17226590E+00,  1.88120980E-03, -3.46292970E-07,
                       1.94685160E-11,  1.76091530E-16,  6.18188510E+01,
                       2.95779740E+00])),
        note='L5/89')

species(name='H2O2',
        atoms='H:2 O:2',
        thermo=(NASA([200.00, 1000.00],
                     [ 4.27611269E+00, -5.42822417E-04,  1.67335701E-05,
                      -2.15770813E-08,  8.62454363E-12, -1.77542989E+04,
                       3.43505074E+00]),
                NASA([1000.00, 6000.00],
                     [ 4.57333537E+00,  4.04984070E-03, -1.29479479E-06,
                       1.97281710E-10, -1.13402846E-14, -1.80548121E+04,
                       7.04278488E-01])),
        note='L2/93')

species(name='H2O',
        atoms='H:2 O:1',
        thermo=(NASA([200.00, 1000.00],
                     [ 4.19863520E+00, -2.03640170E-03,  6.52034160E-06,
                      -5.48792690E-09,  1.77196800E-12, -3.02937260E+04,
                      -8.49009010E-01]),
                NASA([1000.00, 6000.00],
                     [ 2.67703890E+00,  2.97318160E-03, -7.73768890E-07,
                       9.44335140E-11, -4.26899910E-15, -2.98858940E+04,
                       6.88255000E+00])),
        note='L5/89')

species(name='AR',
        atoms='Ar:1',
        thermo=(NASA([200.00, 1000.00],
                     [ 2.50000000E+00,  0.00000000E+00,  0.00000000E+00,
                       0.00000000E+00,  0.00000000E+00, -7.45375000E+02,
                       4.37967490E+00]),
                NASA([1000.00, 6000.00],
                     [ 2.50000000E+00,  0.00000000E+00,  0.00000000E+00,
                       0.00000000E+00,  0.00000000E+00, -7.45375000E+02,
                       4.37967490E+00])),
        note='REFELEMENTL6/88')

species(name='HE',
        atoms='He:1',
        thermo=(NASA([200.00, 1000.00],
                     [ 2.50000000E+00,  0.00000000E+00,  0.00000000E+00,
                       0.00000000E+00,  0.00000000E+00, -7.45375000E+02,
                       9.28723974E-01]),
                NASA([1000.00, 6000.00],
                     [ 2.50000000E+00,  0.00000000E+00,  0.00000000E+00,
                       0.00000000E+00,  0.00000000E+00, -7.45375000E+02,
                       9.28723974E-01])),
        note='L10/90')

species(name='E',
        atoms='E:1',
        thermo=(NASA([300.00, 1000.00],
                     [ 2.50025150E+00,  0.00000000E+00,  0.00000000E+00,
                       0.00000000E+00,  0.00000000E+00, -7.45978390E+02,
                      -1.17368560E+01]),
                NASA([1000.00, 10000.00],
                     [ 2.50025150E+00,  0.00000000E+00,  0.00000000E+00,
                       0.00000000E+00,  0.00000000E+00, -7.45978450E+02,
                      -1.17368560E+01])),
        note='71091')

species(name='N2(v1)',
        atoms='N:2',
        thermo=(NASA([300.00, 1000.00],
                     [ 3.29867700E+00,  1.40824040E-03, -3.96322200E-06,
                       5.64151500E-09, -2.44485400E-12,  2.32991200E+03,
                       3.95037200E+00]),
                NASA([1000.00, 5000.00],
                     [ 2.92664000E+00,  1.48797680E-03, -5.68476000E-07,
                       1.00970380E-10, -6.75335100E-15,  2.42801380E+03,
                       5.98052800E+00])),
        note='121286')

species(name='N2(v2)',
        atoms='N:2',
        thermo=(NASA([300.00, 1000.00],
                     [ 3.29867700E+00,  1.40824040E-03, -3.96322200E-06,
                       5.64151500E-09, -2.44485400E-12,  5.63854700E+03,
                       3.95037200E+00]),
                NASA([1000.00, 5000.00],
                     [ 2.92664000E+00,  1.48797680E-03, -5.68476000E-07,
                       1.00970380E-10, -6.75335100E-15,  5.73664900E+03,
                       5.98052800E+00])),
        note='121286')

species(name='N2(v3)',
        atoms='N:2',
        thermo=(NASA([300.00, 1000.00],
                     [ 3.29867700E+00,  1.40824040E-03, -3.96322200E-06,
                       5.64151500E-09, -2.44485400E-12,  8.90498797E+03,
                       3.95037200E+00]),
                NASA([1000.00, 5000.00],
                     [ 2.92664000E+00,  1.48797680E-03, -5.68476000E-07,
                       1.00970380E-10, -6.75335100E-15,  9.00309017E+03,
                       5.98052800E+00])),
        note='121286')

species(name='N2(v4)',
        atoms='N:2',
        thermo=(NASA([300.00, 1000.00],
                     [ 3.29867700E+00,  1.40824040E-03, -3.96322200E-06,
                       5.64151500E-09, -2.44485400E-12,  1.21292400E+04,
                       3.95037200E+00]),
                NASA([1000.00, 5000.00],
                     [ 2.92664000E+00,  1.48797680E-03, -5.68476000E-07,
                       1.00970380E-10, -6.75335100E-15,  1.22273422E+04,
                       5.98052800E+00])),
        note='121286')

species(name='N2(v5)',
        atoms='N:2',
        thermo=(NASA([300.00, 1000.00],
                     [ 3.29867700E+00,  1.40824040E-03, -3.96322200E-06,
                       5.64151500E-09, -2.44485400E-12,  1.53113033E+04,
                       3.95037200E+00]),
                NASA([1000.00, 5000.00],
                     [ 2.92664000E+00,  1.48797680E-03, -5.68476000E-07,
                       1.00970380E-10, -6.75335100E-15,  1.54094055E+04,
                       5.98052800E+00])),
        note='121286')

species(name='N2(v6)',
        atoms='N:2',
        thermo=(NASA([300.00, 1000.00],
                     [ 3.29867700E+00,  1.40824040E-03, -3.96322200E-06,
                       5.64151500E-09, -2.44485400E-12,  1.84511780E+04,
                       3.95037200E+00]),
                NASA([1000.00, 5000.00],
                     [ 2.92664000E+00,  1.48797680E-03, -5.68476000E-07,
                       1.00970380E-10, -6.75335100E-15,  1.85492802E+04,
                       5.98052800E+00])),
        note='121286')

species(name='N2(v7)',
        atoms='N:2',
        thermo=(NASA([300.00, 1000.00],
                     [ 3.29867700E+00,  1.40824040E-03, -3.96322200E-06,
                       5.64151500E-09, -2.44485400E-12,  2.15488641E+04,
                       3.95037200E+00]),
                NASA([1000.00, 5000.00],
                     [ 2.92664000E+00,  1.48797680E-03, -5.68476000E-07,
                       1.00970380E-10, -6.75335100E-15,  2.16469663E+04,
                       5.98052800E+00])),
        note='121286')

species(name='N2(v8)',
        atoms='N:2',
        thermo=(NASA([300.00, 1000.00],
                     [ 3.29867700E+00,  1.40824040E-03, -3.96322200E-06,
                       5.64151500E-09, -2.44485400E-12,  2.46043615E+04,
                       3.95037200E+00]),
                NASA([1000.00, 5000.00],
                     [ 2.92664000E+00,  1.48797680E-03, -5.68476000E-07,
                       1.00970380E-10, -6.75335100E-15,  2.47024637E+04,
                       5.98052800E+00])),
        note='121286')

species(name='N2(A3Sigma)',
        atoms='N:2',
        thermo=(NASA([300.00, 1000.00],
                     [ 3.29867700E+00,  1.40824040E-03, -3.96322200E-06,
                       5.64151500E-09, -2.44485400E-12,  7.05791061E+04,
                       3.95037200E+00]),
                NASA([1000.00, 5000.00],
                     [ 2.92664000E+00,  1.48797680E-03, -5.68476000E-07,
                       1.00970380E-10, -6.75335100E-15,  7.06771061E+04,
                       5.98052800E+00])),
        note='121286')

species(name='N2(B3Pi)',
        atoms='N:2',
        thermo=(NASA([300.00, 1000.00],
                     [ 3.29867700E+00,  1.40824040E-03, -3.96322200E-06,
                       5.64151500E-09, -2.44485400E-12,  8.42723426E+04,
                       3.95037200E+00]),
                NASA([1000.00, 5000.00],
                     [ 2.92664000E+00,  1.48797680E-03, -5.68476000E-07,
                       1.00970380E-10, -6.75335100E-15,  8.43704426E+04,
                       5.98052800E+00])),
        note='121286')

species(name='N2(Bp3Sigma)',
        atoms='N:2',
        thermo=(NASA([300.00, 1000.00],
                     [ 3.29867700E+00,  1.40824040E-03, -3.96322200E-06,
                       5.64151500E-09, -2.44485400E-12,  9.36720058E+04,
                       3.95037200E+00]),
                NASA([1000.00, 5000.00],
                     [ 2.92664000E+00,  1.48797680E-03, -5.68476000E-07,
                       1.00970380E-10, -6.75335100E-15,  9.37701058E+04,
                       5.98052800E+00])),
        note='121286')

species(name='N2(W3Delta)',
        atoms='N:2',
        thermo=(NASA([300.00, 1000.00],
                     [ 3.29867700E+00,  1.40824040E-03, -3.96322200E-06,
                       5.64151500E-09, -2.44485400E-12,  8.43883856E+04,
                       3.95037200E+00]),
                NASA([1000.00, 5000.00],
                     [ 2.92664000E+00,  1.48797680E-03, -5.68476000E-07,
                       1.00970380E-10, -6.75335100E-15,  8.44864878E+04,
                       5.98052800E+00])),
        note='121286')

species(name='N2(a1Pi)',
        atoms='N:2',
        thermo=(NASA([300.00, 1000.00],
                     [ 3.29867700E+00,  1.40824040E-03, -3.96322200E-06,
                       5.64151500E-09, -2.44485400E-12,  9.81977796E+04,
                       3.95037200E+00]),
                NASA([1000.00, 5000.00],
                     [ 2.92664000E+00,  1.48797680E-03, -5.68476000E-07,
                       1.00970380E-10, -6.75335100E-15,  9.82958696E+04,
                       5.98052800E+00])),
        note='121286')

species(name='N2(ap1Sigma)',
        atoms='N:2',
        thermo=(NASA([300.00, 1000.00],
                     [ 3.29867700E+00,  1.40824040E-03, -3.96322200E-06,
                       5.64151500E-09, -2.44485400E-12,  9.64570912E+04,
                       3.95037200E+00]),
                NASA([1000.00, 5000.00],
                     [ 2.92664000E+00,  1.48797680E-03, -5.68476000E-07,
                       1.00970380E-10, -6.75335100E-15,  9.65551912E+04,
                       5.98052800E+00])),
        note='121286')

species(name='N2(app1Sigma)',
        atoms='N:2',
        thermo=(NASA([300.00, 1000.00],
                     [ 3.29867700E+00,  1.40824040E-03, -3.96322200E-06,
                       5.64151500E-09, -2.44485400E-12,  1.41134503E+05,
                       3.95037200E+00]),
                NASA([1000.00, 5000.00],
                     [ 2.92664000E+00,  1.48797680E-03, -5.68476000E-07,
                       1.00970380E-10, -6.75335100E-15,  1.41232603E+05,
                       5.98052800E+00])),
        note='121286')

species(name='N2(w1Delta)',
        atoms='N:2',
        thermo=(NASA([300.00, 1000.00],
                     [ 3.29867700E+00,  1.40824040E-03, -3.96322200E-06,
                       5.64151500E-09, -2.44485400E-12,  1.02143307E+05,
                       3.95037200E+00]),
                NASA([1000.00, 5000.00],
                     [ 2.92664000E+00,  1.48797680E-03, -5.68476000E-07,
                       1.00970380E-10, -6.75335100E-15,  1.02241407E+05,
                       5.98052800E+00])),
        note='121286')

species(name='N2(C3Pi)',
        atoms='N:2',
        thermo=(NASA([300.00, 1000.00],
                     [ 3.29867700E+00,  1.40824040E-03, -3.96322200E-06,
                       5.64151500E-09, -2.44485400E-12,  1.26977015E+05,
                       3.95037200E+00]),
                NASA([1000.00, 5000.00],
                     [ 2.92664000E+00,  1.48797680E-03, -5.68476000E-07,
                       1.00970380E-10, -6.75335100E-15,  1.27075085E+05,
                       5.98052800E+00])),
        note='121286')

species(name='N2(E3Sigma)',
        atoms='N:2',
        thermo=(NASA([300.00, 1000.00],
                     [ 3.29867700E+00,  1.40824040E-03, -3.96322200E-06,
                       5.64151500E-09, -2.44485400E-12,  1.36724814E+05,
                       3.95037200E+00]),
                NASA([1000.00, 5000.00],
                     [ 2.92664000E+00,  1.48797680E-03, -5.68476000E-07,
                       1.00970380E-10, -6.75335100E-15,  1.36822884E+05,
                       5.98052800E+00])),
        note='121286')

species(name='N2+',
        atoms='E:-1 N:2',
        thermo=(NASA([300.00, 1000.00],
                     [ 3.63574900E+00,  2.19026900E-04, -1.31894500E-06,
                       3.61805700E-09, -1.97929400E-12,  1.88831700E+05,
                       4.18363500E+00]),
                NASA([1000.00, 5000.00],
                     [ 3.75832000E+00,  2.83391900E-04,  1.64837600E-07,
                      -3.28813500E-11,  9.27391700E-16,  1.88699100E+05,
                       3.25261600E+00])),
        note='tpis89')

species(name='O2(v1)',
        atoms='O:2',
        thermo=(NASA([300.00, 1000.00],
                     [ 3.21293600E+00,  1.12748640E-03, -5.75615000E-07,
                       1.31387730E-09, -8.76855400E-13,  1.19961020E+03,
                       6.03473700E+00]),
                NASA([1000.00, 5000.00],
                     [ 3.69757800E+00,  6.13519700E-04, -1.25884200E-07,
                       1.77528100E-11, -1.13643540E-15,  9.70929270E+02,
                       3.18916500E+00])),
        note='121386')

species(name='O2(v2)',
        atoms='O:2',
        thermo=(NASA([300.00, 1000.00],
                     [ 3.21293600E+00,  1.12748640E-03, -5.75615000E-07,
                       1.31387730E-09, -8.76855400E-13,  3.40446950E+03,
                       6.03473700E+00]),
                NASA([1000.00, 5000.00],
                     [ 3.69757800E+00,  6.13519700E-04, -1.25884200E-07,
                       1.77528100E-11, -1.13643540E-15,  3.17578850E+03,
                       3.18916500E+00])),
        note='121386')

species(name='O2(v3)',
        atoms='O:2',
        thermo=(NASA([300.00, 1000.00],
                     [ 3.21293600E+00,  1.12748640E-03, -5.75615000E-07,
                       1.31387730E-09, -8.76855400E-13,  5.60932880E+03,
                       6.03473700E+00]),
                NASA([1000.00, 5000.00],
                     [ 3.69757800E+00,  6.13519700E-04, -1.25884200E-07,
                       1.77528100E-11, -1.13643540E-15,  5.38064780E+03,
                       3.18916500E+00])),
        note='121386')

species(name='O2(v4)',
        atoms='O:2',
        thermo=(NASA([300.00, 1000.00],
                     [ 3.21293600E+00,  1.12748640E-03, -5.75615000E-07,
                       1.31387730E-09, -8.76855400E-13,  7.69814280E+03,
                       6.03473700E+00]),
                NASA([1000.00, 5000.00],
                     [ 3.69757800E+00,  6.13519700E-04, -1.25884200E-07,
                       1.77528100E-11, -1.13643540E-15,  7.46946180E+03,
                       3.18916500E+00])),
        note='121386')

species(name='O2(a1Delta)',
        atoms='O:2',
        thermo=(NASA([300.00, 1000.00],
                     [ 3.21293600E+00,  1.12748640E-03, -5.75615000E-07,
                       1.31387730E-09, -8.76855400E-13,  1.03671830E+04,
                       6.03473700E+00]),
                NASA([1000.00, 5000.00],
                     [ 3.69757800E+00,  6.13519700E-04, -1.25884200E-07,
                       1.77528100E-11, -1.13643540E-15,  1.01385020E+04,
                       3.18916500E+00])),
        note='121386')

species(name='O2(b1Sigma)',
        atoms='O:2',
        thermo=(NASA([300.00, 1000.00],
                     [ 3.21293600E+00,  1.12748640E-03, -5.75615000E-07,
                       1.31387730E-09, -8.76855400E-13,  1.79101210E+04,
                       6.03473700E+00]),
                NASA([1000.00, 5000.00],
                     [ 3.69757800E+00,  6.13519700E-04, -1.25884200E-07,
                       1.77528100E-11, -1.13643540E-15,  1.76814410E+04,
                       3.18916500E+00])),
        note='121386')

species(name='O2+',
        atoms='E:-1 O:2',
        thermo=(NASA([300.00, 1000.00],
                     [ 3.89824400E+00, -2.10791900E-03,  5.66808900E-06,
                      -4.09682700E-09,  9.12440500E-13,  1.46206800E+05,
                       4.14517800E+00]),
                NASA([1000.00, 5000.00],
                     [ 3.28640200E+00,  1.48191400E-03, -5.95727200E-07,
                       1.08676000E-10, -7.23606700E-15,  1.46244200E+05,
                       6.74178700E+00])),
        note='RUS89')

species(name='N(2D)',
        atoms='N:1',
        thermo=(NASA([300.00, 1000.00],
                     [ 2.50307100E+00, -2.18001800E-05,  5.42052900E-08,
                      -5.64756000E-11,  2.09990400E-14,  8.37180000E+04,
                       4.16756600E+00]),
                NASA([1000.00, 5000.00],
                     [ 2.45026800E+00,  1.06614580E-04, -7.46533700E-08,
                       1.87965200E-11, -1.02598390E-15,  8.37350000E+04,
                       4.44875800E+00])),
        note='120186')

species(name='N(2P)',
        atoms='N:1',
        thermo=(NASA([300.00, 1000.00],
                     [ 2.50307100E+00, -2.18001800E-05,  5.42052900E-08,
                      -5.64756000E-11,  2.09990400E-14,  9.76430000E+04,
                       4.16756600E+00]),
                NASA([1000.00, 5000.00],
                     [ 2.45026800E+00,  1.06614580E-04, -7.46533700E-08,
                       1.87965200E-11, -1.02598390E-15,  9.76600000E+04,
                       4.44875800E+00])),
        note='120186')

species(name='O(1S)',
        atoms='O:1',
        thermo=(NASA([300.00, 1000.00],
                     [ 2.94642800E+00, -1.63816650E-03,  2.42103100E-06,
                      -1.60284310E-09,  3.89069600E-13,  7.77710000E+04,
                       2.96399500E+00]),
                NASA([1000.00, 5000.00],
                     [ 2.54205900E+00, -2.75506100E-05, -3.10280300E-09,
                       4.55106700E-12, -4.36805100E-16,  7.78540000E+04,
                       4.92030800E+00])),
        note='120186')

species(name='O(1D)',
        atoms='O:1',
        thermo=(NASA([300.00, 1000.00],
                     [ 2.94642800E+00, -1.63816650E-03,  2.42103100E-06,
                      -1.60284310E-09,  3.89069600E-13,  5.20090000E+04,
                       2.96399500E+00]),
                NASA([1000.00, 5000.00],
                     [ 2.54205900E+00, -2.75506100E-05, -3.10280300E-09,
                       4.55106700E-12, -4.36805100E-16,  5.20920000E+04,
                       4.92030800E+00])),
        note='120186')

species(name='NH',
        atoms='H:1 N:1',
        thermo=(NASA([200.00, 1000.00],
                     [ 3.49290840E+00,  3.11791970E-04, -1.48904840E-06,
                       2.48164420E-09, -1.03569670E-12,  4.18942940E+04,
                       1.84832770E+00]),
                NASA([1000.00, 6000.00],
                     [ 2.78369290E+00,  1.32984290E-03, -4.24780470E-07,
                       7.83485040E-11, -5.50444700E-15,  4.21345140E+04,
                       5.74077980E+00])),
        note='L11/89')

species(name='H2(v1)',
        atoms='H:2',
        thermo=(NASA([200.00, 1000.00],
                     [ 2.34433112E+00,  7.98052075E-03, -1.94781510E-05,
                       2.01572094E-08, -7.37611761E-12,  5.07000000E+03,
                       6.83010238E-01]),
                NASA([1000.00, 3500.00],
                     [ 3.33727920E+00, -4.94024731E-05,  4.99456778E-07,
                      -1.79566394E-10,  2.00255376E-14,  5.03780000E+03,
                      -3.20502331E+00])),
        note='TPIS78')

species(name='H2(v2)',
        atoms='H:2',
        thermo=(NASA([200.00, 1000.00],
                     [ 2.34433112E+00,  7.98052075E-03, -1.94781510E-05,
                       2.01572094E-08, -7.37611761E-12,  1.06870000E+04,
                       6.83010238E-01]),
                NASA([1000.00, 3500.00],
                     [ 3.33727920E+00, -4.94024731E-05,  4.99456778E-07,
                      -1.79566394E-10,  2.00255376E-14,  1.06540000E+04,
                      -3.20502331E+00])),
        note='TPIS78')

species(name='H2(v3)',
        atoms='H:2',
        thermo=(NASA([200.00, 1000.00],
                     [ 2.34433112E+00,  7.98052075E-03, -1.94781510E-05,