units(length='cm', time='s', quantity='mol', act_energy='cal/mol')

ideal_gas(name='gas',
          elements="N C H O Ar",
          species="""AR N2       S-CH2    T-CH2    O        H2       H
                     OH       H2O      O2       HO2      CH       CO
                     HCO      CH2O     CH3      CO2      CH4      C2H3
                     C2H4     C2H5     C2H      HCCO     C2H2     C3H3
                     A-C3H5   N-C3H7   C2H6     P-C3H4   A-C3H4   A1
                     A1-      C5H5     C3H6     C4H8     C5H6     A2
                     C5H10    C5H11    A1C2H2   A1CH2    A1CHO    A1CH3
                     C7H15    N-C7H16  A1C2H*   A2-      A1C2H""",
          reactions='all',
          transport='Mix',
          initial_state=state(temperature=300.0, pressure=OneAtm))

#-------------------------------------------------------------------------------
# Species data
#-------------------------------------------------------------------------------

species(name='AR',
        atoms='Ar:1',
        thermo=(NASA([200.00, 1000.00],
                     [ 2.50000000E+00,  0.00000000E+00,  0.00000000E+00,
                       0.00000000E+00,  0.00000000E+00, -7.45375000E+02,
                       4.37967491E+00]),
                NASA([1000.00, 6000.00],
                     [ 2.50000000E+00,  0.00000000E+00,  0.00000000E+00,
                       0.00000000E+00,  0.00000000E+00, -7.45375000E+02,
                       4.37967491E+00])),
        transport=gas_transport(geom='atom',
                                diam=3.33,
                                well_depth=136.5),
        note='REFELEMENTG5/97')

species(name=u'N2',
        atoms='N:2',
        thermo=(NASA([300.00, 1000.00],
                     [ 3.29867700E+00,  1.40824040E-03, -3.96322200E-06,
                       5.64151500E-09, -2.44485400E-12, -1.02089990E+03,
                       3.95037200E+00]),
                NASA([1000.00, 5000.00],
                     [ 2.92664000E+00,  1.48797680E-03, -5.68476000E-07,
                       1.00970380E-10, -6.75335100E-15, -9.22797700E+02,
                       5.98052800E+00])),
        transport=gas_transport(geom='linear',
                                diam=3.621,
                                well_depth=97.53,
                                polar=1.76,
                                rot_relax=4.0),
        note=u'121286')

species(name=u'S-CH2',
        atoms='H:2 C:1',
        thermo=(NASA([200.00, 1000.00],
                     [ 4.19860411E+00, -2.36661419E-03,  8.23296220E-06,
                      -6.68815981E-09,  1.94314737E-12,  5.04968163E+04,
                      -7.69118967E-01]),
                NASA([1000.00, 3500.00],
                     [ 2.29203842E+00,  4.65588637E-03, -2.01191947E-06,
                       4.17906000E-10, -3.39716365E-14,  5.09259997E+04,
                       8.62650169E+00])),
        transport=gas_transport(geom='linear',
                                diam=3.8,
                                well_depth=144.0),
        note=u'LS/93')

species(name=u'T-CH2',
        atoms='H:2 C:1',
        thermo=(NASA([200.00, 1000.00],
                     [ 3.76267867E+00,  9.68872143E-04,  2.79489841E-06,
                      -3.85091153E-09,  1.68741719E-12,  4.60040401E+04,
                       1.56253185E+00]),
                NASA([1000.00, 3500.00],
                     [ 2.87410113E+00,  3.65639292E-03, -1.40894597E-06,
                       2.60179549E-10, -1.87727567E-14,  4.62636040E+04,
                       6.17119324E+00])),
        transport=gas_transport(geom='linear',
                                diam=3.8,
                                well_depth=144.0),
        note=u'LS/93')

species(name=u'O',
        atoms='O:1',
        thermo=(NASA([200.00, 1000.00],
                     [ 3.16826710E+00, -3.27931884E-03,  6.64306396E-06,
                      -6.12806624E-09,  2.11265971E-12,  2.91222592E+04,
                       2.05193346E+00]),
                NASA([1000.00, 3500.00],
                     [ 2.56942078E+00, -8.59741137E-05,  4.19484589E-08,
                      -1.00177799E-11,  1.22833691E-15,  2.92175791E+04,
                       4.78433864E+00])),
        transport=gas_transport(geom='atom',
                                diam=2.75,
                                well_depth=80.0),
        note=u'L1/90')

species(name=u'H2',
        atoms='H:2',
        thermo=(NASA([200.00, 1000.00],
                     [ 2.34433112E+00,  7.98052075E-03, -1.94781510E-05,
                       2.01572094E-08, -7.37611761E-12, -9.17935173E+02,
                       6.83010238E-01]),
                NASA([1000.00, 3500.00],
                     [ 3.33727920E+00, -4.94024731E-05,  4.99456778E-07,
                      -1.79566394E-10,  2.00255376E-14, -9.50158922E+02,
                      -3.20502331E+00])),
        transport=gas_transport(geom='linear',
                                diam=2.92,
                                well_depth=38.0,
                                polar=0.79,
                                rot_relax=280.0),
        note=u'TPIS78')

species(name=u'H',
        atoms='H:1',
        thermo=(NASA([200.00, 1000.00],
                     [ 2.50000000E+00,  7.05332819E-13, -1.99591964E-15,
                       2.30081632E-18, -9.27732332E-22,  2.54736599E+04,
                      -4.46682853E-01]),
                NASA([1000.00, 3500.00],
                     [ 2.50000001E+00, -2.30842973E-11,  1.61561948E-14,
                      -4.73515235E-18,  4.98197357E-22,  2.54736599E+04,
                      -4.46682914E-01])),
        transport=gas_transport(geom='atom',
                                diam=2.05,
                                well_depth=145.0),
        note=u'L7/88')

species(name=u'OH',
        atoms='H:1 O:1',
        thermo=(NASA([200.00, 1000.00],
                     [ 4.12530561E+00, -3.22544939E-03,  6.52764691E-06,
                      -5.79853643E-09,  2.06237379E-12,  3.38153812E+03,
                      -6.90432960E-01]),
                NASA([1000.00, 6000.00],
                     [ 2.86472886E+00,  1.05650448E-03, -2.59082758E-07,
                       3.05218674E-11, -1.33195876E-15,  3.71885774E+03,
                       5.70164073E+00])),
        transport=gas_transport(geom='linear',
                                diam=2.75,
                                well_depth=80.0),
        note=u'S9/01')

species(name=u'H2O',
        atoms='H:2 O:1',
        thermo=(NASA([200.00, 1000.00],
                     [ 4.19864056E+00, -2.03643410E-03,  6.52040211E-06,
                      -5.48797062E-09,  1.77197817E-12, -3.02937267E+04,
                      -8.49032208E-01]),
                NASA([1000.00, 3500.00],
                     [ 3.03399249E+00,  2.17691804E-03, -1.64072518E-07,
                      -9.70419870E-11,  1.68200992E-14, -3.00042971E+04,
                       4.96677010E+00])),
        transport=gas_transport(geom='nonlinear',
                                diam=2.605,
                                well_depth=572.4,
                                dipole=1.844,
                                rot_relax=4.0),
        note=u'L8/89')

species(name=u'O2',
        atoms='O:2',
        thermo=(NASA([200.00, 1000.00],
                     [ 3.78245636E+00, -2.99673416E-03,  9.84730201E-06,
                      -9.68129509E-09,  3.24372837E-12, -1.06394356E+03,
                       3.65767573E+00]),
                NASA([1000.00, 3500.00],
                     [ 3.28253784E+00,  1.48308754E-03, -7.57966669E-07,
                       2.09470555E-10, -2.16717794E-14, -1.08845772E+03,
                       5.45323129E+00])),
        transport=gas_transport(geom='linear',
                                diam=3.458,
                                well_depth=107.4,
                                polar=1.6,
                                rot_relax=3.8),
        note=u'TPIS89')

species(name=u'HO2',
        atoms='H:1 O:2',
        thermo=(NASA([200.00, 1000.00],
                     [ 4.30179801E+00, -4.74912051E-03,  2.11582891E-05,
                      -2.42763894E-08,  9.29225124E-12,  2.94808040E+02,
                       3.71666245E+00]),
                NASA([1000.00, 3500.00],
                     [ 4.01721090E+00,  2.23982013E-03, -6.33658150E-07,
                       1.14246370E-10, -1.07908535E-14,  1.11856713E+02,
                       3.78510215E+00])),
        transport=gas_transport(geom='nonlinear',
                                diam=3.458,
                                well_depth=107.4,
                                rot_relax=1.0),
        note=u'L5/89')

species(name=u'CH',
        atoms='H:1 C:1',
        thermo=(NASA([200.00, 1000.00],
                     [ 3.48981665E+00,  3.23835541E-04, -1.68899065E-06,
                       3.16217327E-09, -1.40609067E-12,  7.07972934E+04,
                       2.08401108E+00]),
                NASA([1000.00, 3500.00],
                     [ 2.87846473E+00,  9.70913681E-04,  1.44445655E-07,
                      -1.30687849E-10,  1.76079383E-14,  7.10124364E+04,
                       5.48497999E+00])),
        transport=gas_transport(geom='linear',
                                diam=2.75,
                                well_depth=80.0),
        note=u'TPIS79')

species(name=u'CO',
        atoms='C:1 O:1',
        thermo=(NASA([200.00, 1000.00],
                     [ 3.57953347E+00, -6.10353680E-04,  1.01681433E-06,
                       9.07005884E-10, -9.04424499E-13, -1.43440860E+04,
                       3.50840928E+00]),
                NASA([1000.00, 3500.00],
                     [ 2.71518561E+00,  2.06252743E-03, -9.98825771E-07,
                       2.30053008E-10, -2.03647716E-14, -1.41518724E+04,
                       7.81868772E+00])),
        transport=gas_transport(geom='linear',
                                diam=3.65,
                                well_depth=98.1,
                                polar=1.95,
                                rot_relax=1.8),
        note=u'TPIS79')

species(name=u'HCO',
        atoms='H:1 C:1 O:1',
        thermo=(NASA([200.00, 1000.00],
                     [ 4.22118584E+00, -3.24392532E-03,  1.37799446E-05,
                      -1.33144093E-08,  4.33768865E-12,  3.83956496E+03,
                       3.39437243E+00]),
                NASA([1000.00, 3500.00],
                     [ 2.77217438E+00,  4.95695526E-03, -2.48445613E-06,
                       5.89161778E-10, -5.33508711E-14,  4.01191815E+03,
                       9.79834492E+00])),
        transport=gas_transport(geom='nonlinear',
                                diam=3.59,
                                well_depth=498.0),
        note=u'L12/89')

species(name=u'CH2O',
        atoms='H:2 C:1 O:1',
        thermo=(NASA([200.00, 1000.00],
                     [ 4.79372315E+00, -9.90833369E-03,  3.73220008E-05,
                      -3.79285261E-08,  1.31772652E-11, -1.43089567E+04,
                       6.02812900E-01]),
                NASA([1000.00, 3500.00],
                     [ 1.76069008E+00,  9.20000082E-03, -4.42258813E-06,
                       1.00641212E-09, -8.83855640E-14, -1.39958323E+04,
                       1.36563230E+01])),
        transport=gas_transport(geom='nonlinear',
                                diam=3.59,
                                well_depth=498.0,
                                rot_relax=2.0),
        note=u'L8/88')

species(name=u'CH3',
        atoms='H:3 C:1',
        thermo=(NASA([200.00, 1000.00],
                     [ 3.65717970E+00,  2.12659790E-03,  5.45838830E-06,
                      -6.61810030E-09,  2.46570740E-12,  1.64227160E+04,
                       1.67353540E+00]),
                NASA([1000.00, 6000.00],
                     [ 2.97812060E+00,  5.79785200E-03, -1.97558000E-06,
                       3.07297900E-10, -1.79174160E-14,  1.65095130E+04,
                       4.72247990E+00])),
        transport=gas_transport(geom='linear',
                                diam=3.8,
                                well_depth=144.0),
        note=u'METHYLIU0702')

species(name=u'CO2',
        atoms='C:1 O:2',
        thermo=(NASA([200.00, 1000.00],
                     [ 2.35677352E+00,  8.98459677E-03, -7.12356269E-06,
                       2.45919022E-09, -1.43699548E-13, -4.83719697E+04,
                       9.90105222E+00]),
                NASA([1000.00, 3500.00],
                     [ 3.85746029E+00,  4.41437026E-03, -2.21481404E-06,
                       5.23490188E-10, -4.72084164E-14, -4.87591660E+04,
                       2.27163806E+00])),
        transport=gas_transport(geom='linear',
                                diam=3.763,
                                well_depth=244.0,
                                polar=2.65,
                                rot_relax=2.1),
        note=u'L7/88')

species(name=u'CH4',
        atoms='H:4 C:1',
        thermo=(NASA([200.00, 1000.00],
                     [ 5.14911468E+00, -1.36622009E-02,  4.91453921E-05,
                      -4.84246767E-08,  1.66603441E-11, -1.02465983E+04,
                      -4.63848842E+00]),
                NASA([1000.00, 6000.00],
                     [ 1.65326226E+00,  1.00263099E-02, -3.31661238E-06,
                       5.36483138E-10, -3.14696758E-14, -1.00095936E+04,
                       9.90506283E+00])),
        transport=gas_transport(geom='nonlinear',
                                diam=3.746,
                                well_depth=141.4,
                                polar=2.6,
                                rot_relax=13.0),
        note=u'g8/99')

species(name=u'C2H3',
        atoms='H:3 C:2',
        thermo=(NASA([200.00, 1000.00],
                     [ 3.21246645E+00,  1.51479162E-03,  2.59209412E-05,
                      -3.57657847E-08,  1.47150873E-11,  3.48598468E+04,
                       8.51054025E+00]),
                NASA([1000.00, 3500.00],
                     [ 3.01672400E+00,  1.03302292E-02, -4.68082349E-06,
                       1.01763288E-09, -8.62607041E-14,  3.46128739E+04,
                       7.78732378E+00])),
        transport=gas_transport(geom='nonlinear',
                                diam=4.1,
                                well_depth=209.0,
                                rot_relax=1.0),
        note=u'L2/92')

species(name=u'C2H4',
        atoms='H:4 C:2',
        thermo=(NASA([200.00, 1000.00],
                     [ 3.95920148E+00, -7.57052247E-03,  5.70990292E-05,
                      -6.91588753E-08,  2.69884373E-11,  5.08977593E+03,
                       4.09733096E+00]),
                NASA([1000.00, 3500.00],
                     [ 2.03611116E+00,  1.46454151E-02, -6.71077915E-06,
                       1.47222923E-09, -1.25706061E-13,  4.93988614E+03,
                       1.03053693E+01])),
        transport=gas_transport(geom='nonlinear',
                                diam=3.971,
                                well_depth=280.8,
                                rot_relax=1.5),
        note=u'L1/91')

species(name=u'C2H5',
        atoms='H:5 C:2',
        thermo=(NASA([200.00, 1000.00],
                     [ 4.30646568E+00, -4.18658892E-03,  4.97142807E-05,
                      -5.99126606E-08,  2.30509004E-11,  1.28416265E+04,
                       4.70720924E+00]),
                NASA([1000.00, 3500.00],
                     [ 1.95465642E+00,  1.73972722E-02, -7.98206668E-06,
                       1.75217689E-09, -1.49641576E-13,  1.28575200E+04,
                       1.34624343E+01])),
        transport=gas_transport(geom='nonlinear',
                                diam=4.302,
                                well_depth=252.3,
                                rot_relax=1.5),
        note=u'L12/92')

species(name=u'C2H',
        atoms='H:1 C:2',
        thermo=(NASA([200.00, 1000.00],
                     [ 2.88965733E+00,  1.34099611E-02, -2.84769501E-05,
                       2.94791045E-08, -1.09331511E-11,  6.68393932E+04,
                       6.22296438E+00]),
                NASA([1000.00, 3500.00],
                     [ 3.16780652E+00,  4.75221902E-03, -1.83787077E-06,
                       3.04190252E-10, -1.77232770E-14,  6.71210650E+04,
                       6.63589475E+00])),
        transport=gas_transport(geom='linear',
                                diam=4.1,
                                well_depth=209.0,
                                rot_relax=2.5),
        note=u'L1/91')

species(name=u'HCCO',
        atoms='H:1 C:2 O:1',
        thermo=(NASA([300.00, 1000.00],
                     [ 2.25172140E+00,  1.76550210E-02, -2.37291010E-05,
                       1.72757590E-08, -5.06648110E-12,  2.00594490E+04,
                       1.24904170E+01]),
                NASA([1000.00, 4000.00],
                     [ 5.62820580E+00,  4.08534010E-03, -1.59345470E-06,
                       2.86260520E-10, -1.94078320E-14,  1.93272150E+04,
                      -3.93025950E+00])),
        transport=gas_transport(geom='nonlinear',
                                diam=2.5,
                                well_depth=150.0,
                                rot_relax=1.0),
        note=u'SRIC91')

species(name=u'C2H2',
        atoms='H:2 C:2',
        thermo=(NASA([200.00, 1000.00],
                     [ 8.08681094E-01,  2.33615629E-02, -3.55171815E-05,
                       2.80152437E-08, -8.50072974E-12,  2.64289807E+04,
                       1.39397051E+01]),
                NASA([1000.00, 3500.00],
                     [ 4.14756964E+00,  5.96166664E-03, -2.37294852E-06,
                       4.67412171E-10, -3.61235213E-14,  2.59359992E+04,
                      -1.23028121E+00])),
        transport=gas_transport(geom='linear',
                                diam=4.1,
                                well_depth=209.0,
                                rot_relax=2.5),
        note=u'L1/91')

species(name=u'C3H3',
        atoms='H:3 C:3',
        thermo=(NASA([300.00, 1000.00],
                     [ 1.40299238E+00,  3.01773327E-02, -3.98449373E-05,
                       2.93534629E-08, -8.70554579E-12,  3.93108220E+04,
                       1.51527845E+01]),
                NASA([1000.00, 3000.00],
                     [ 6.14915291E+00,  9.34063166E-03, -3.75055354E-06,
                       6.90156316E-10, -4.60824994E-14,  3.83854848E+04,
                      -7.45345215E+00])),
        transport=gas_transport(geom='nonlinear',
                                diam=4.76,
                                well_depth=252.0,
                                rot_relax=1.0),
        note=u'G3B3')

species(name=u'A-C3H5',
        atoms='H:5 C:3',
        thermo=(NASA([300.00, 1000.00],
                     [-1.03516444E+00,  3.75043366E-02, -3.26381242E-05,
                       1.47662613E-08, -2.43741154E-12,  1.88792254E+04,
                       2.71451071E+01]),
                NASA([1000.00, 3000.00],
                     [ 2.28794927E+00,  2.36401575E-02, -1.27891450E-05,
                       3.36838540E-09, -3.47449449E-13,  1.83033514E+04,
                       1.14063418E+01])),
        transport=gas_transport(geom='nonlinear',
                                diam=4.982,
                                well_depth=266.8,
                                rot_relax=1.0),
        note=u'G3B3')

species(name=u'N-C3H7',
        atoms='H:7 C:3',
        thermo=(NASA([298.15, 1000.00],
                     [ 1.04754730E+00,  2.60077940E-02,  2.35622520E-06,
                      -1.95923170E-08,  9.36801160E-12,  1.06326370E+04,
                       2.11418760E+01]),
                NASA([1000.00, 5000.00],
                     [ 7.70404050E+00,  1.60415400E-02, -5.28159670E-06,
                       7.62544030E-10, -3.93534620E-14,  8.29795310E+03,
                      -1.54875140E+01])),
        transport=gas_transport(geom='nonlinear',
                                diam=4.982,
                                well_depth=266.8,
                                rot_relax=1.0),
        note=u'N-L9/85')

species(name=u'C2H6',
        atoms='H:6 C:2',
        thermo=(NASA([200.00, 1000.00],
                     [ 4.29142492E+00, -5.50154270E-03,  5.99438288E-05,
                      -7.08466285E-08,  2.68685771E-11, -1.15222055E+04,
                       2.66682316E+00]),
                NASA([1000.00, 3500.00],
                     [ 1.07188150E+00,  2.16852677E-02, -1.00256067E-05,
                       2.21412001E-09, -1.90002890E-13, -1.14263932E+04,
                       1.51156107E+01])),
        transport=gas_transport(geom='nonlinear',
                                diam=4.302,
                                well_depth=252.3,
                                rot_relax=1.5),
        note=u'L8/88')

species(name=u'P-C3H4',
        atoms='H:4 C:3',
        thermo=(NASA([300.00, 1000.00],
                     [ 1.46175323E+00,  2.46026602E-02, -1.90219395E-05,
                       8.60363422E-09, -1.66729240E-12,  2.09209793E+04,
                       1.49262585E+01]),
                NASA([1000.00, 3000.00],
                     [ 2.81460543E+00,  1.85524496E-02, -9.55026768E-06,
                       2.39951370E-09, -2.37485257E-13,  2.07010771E+04,
                       8.60604972E+00])),
        transport=gas_transport(geom='nonlinear',
                                diam=4.76,
                                well_depth=252.0,
                                rot_relax=1.0),
        note=u'G3B3')

species(name=u'A-C3H4',
        atoms='H:4 C:3',
        thermo=(NASA([300.00, 1000.00],
                     [ 3.68928265E-01,  2.89351397E-02, -2.44386408E-05,
                       1.12547166E-08, -2.03040262E-12,  2.17585256E+04,
                       1.95267211E+01]),
                NASA([1000.00, 3000.00],
                     [ 2.56128757E+00,  1.95080128E-02, -1.04061366E-05,
                       2.70165173E-09, -2.75074329E-13,  2.13894289E+04,
                       9.20550397E+00])),
        transport=gas_transport(geom='nonlinear',
                                diam=4.76,
                                well_depth=252.0,
                                rot_relax=1.0),
        note=u'G3B3')

species(name=u'A1',
        atoms='H:6 C:6',
        thermo=(NASA([300.00, 1000.00],
                     [-5.51558393E+00,  6.45453225E-02, -4.41402928E-05,
                       7.47712161E-09,  3.10282254E-12,  9.11031457E+03,
                       4.65332293E+01]),
                NASA([1000.00, 3000.00],
                     [-2.06240612E-01,  4.64122440E-02, -2.77653536E-05,
                       7.88910537E-09, -8.60365259E-13,  8.09883905E+03,
                       2.06566629E+01])),
        transport=gas_transport(geom='nonlinear',
                                diam=5.29,
                                well_depth=464.8,
                                polar=10.32,
                                rot_relax=1.0),
        note=u'G3B3')

species(name=u'A1-',
        atoms='H:5 C:6',
        thermo=(NASA([300.00, 1000.00],
                     [-4.87654845E+00,  6.26805782E-02, -4.87402286E-05,
                       1.41122287E-08,  5.18518312E-13,  3.99269438E+04,
                       4.59964173E+01]),
                NASA([1000.00, 3000.00],
                     [ 1.38016336E+00,  4.04032009E-02, -2.42250885E-05,
                       6.88723321E-09, -7.50960802E-13,  3.86973520E+04,
                       1.55220921E+01])),
        transport=gas_transport(geom='nonlinear',
                                diam=5.29,
                                well_depth=464.8,
                                polar=10.32,
                                rot_relax=1.0),
        note=u'G3B3')

species(name=u'C5H5',
        atoms='H:5 C:5',
        thermo=(NASA([300.00, 1000.00],
                     [-7.37844042E+00,  9.72391818E-02, -1.69579138E-04,
                       1.51818667E-07, -5.12075479E-11,  3.05514662E+04,
                       5.12829539E+01]),
                NASA([1000.00, 3000.00],
                     [ 4.21464919E+00,  2.71834728E-02, -1.33173209E-05,
                       3.08980119E-09, -2.77879873E-13,  2.88952416E+04,
                      -3.05999781E-02])),
        transport=gas_transport(geom='nonlinear',
                                diam=5.2,
                                well_depth=400.0,
                                rot_relax=1.0),
        note=u'Refitted')

species(name=u'C3H6',
        atoms='H:6 C:3',
        thermo=(NASA([300.00, 1000.00],
                     [-2.29261670E-03,  3.10261065E-02, -1.67151548E-05,
                       1.89594170E-09,  1.24957915E-12,  1.13437406E+03,
                       2.35719601E+01]),
                NASA([1000.00, 3000.00],
                     [ 4.71697982E-01,  2.89513070E-02, -1.56601819E-05,
                       4.11443199E-09, -4.23075141E-13,  1.12603387E+03,
                       2.15237289E+01])),
        transport=gas_transport(geom='nonlinear',
                                diam=4.982,
                                well_depth=266.8,
                                rot_relax=1.0),
        note=u'G3B3')

species(name=u'C4H8',
        atoms='H:8 C:4',
        thermo=(NASA([300.00, 1000.00],
                     [-8.31372089E-01,  4.52580978E-02, -2.93658559E-05,
                       1.00220436E-08, -1.43191680E-12, -1.57875035E+03,
                       2.95084236E+01]),
                NASA([1000.00, 5000.00],
                     [ 3.04470367E+00,  3.27451765E-02, -1.45363237E-05,
                       2.39744017E-09,  0.00000000E+00, -2.52177534E+03,
                       1.00151514E+01])),
        transport=gas_transport(geom='nonlinear',
                                diam=5.088,
                                well_depth=345.7,
                                dipole=0.3,
                                rot_relax=1.0),
        note=u'000000')

species(name=u'C5H6',
        atoms='H:6 C:5',
        thermo=(NASA([300.00, 1000.00],
                     [-5.13691194E+00,  6.06953453E-02, -4.60552837E-05,
                       1.28457201E-08,  7.41214852E-13,  1.53675713E+04,
                       4.61567559E+01]),
                NASA([1000.00, 3000.00],
                     [ 2.30537462E-01,  4.09571826E-02, -2.41588958E-05,
                       6.79763480E-09, -7.36374421E-13,  1.43779465E+04,
                       2.02551234E+01])),
        transport=gas_transport(geom='nonlinear',
                                diam=5.2,
                                well_depth=400.0),
        note=u'G3B3')

species(name=u'A2',
        atoms='H:8 C:10',
        thermo=(NASA([300.00, 1000.00],
                     [-8.72434585E+00,  1.05376008E-01, -8.01710690E-05,
                       2.18545974E-08,  1.42066606E-12,  1.48059774E+04,
                       6.19827540E+01]),
                NASA([1000.00, 3000.00],
                     [ 1.76826275E+00,  6.89143506E-02, -4.14322176E-05,
                       1.17914309E-08, -1.28597061E-12,  1.26883657E+04,
                       1.06256608E+01])),
        transport=gas_transport(geom='nonlinear',
                                diam=6.18,
                                well_depth=630.4,
                                polar=16.5,
                                rot_relax=1.0),
        note=u'G3B3')

species(name=u'C5H10',
        atoms='H:10 C:5',
        thermo=(NASA([300.00, 1000.00],
                     [-1.06223481E+00,  5.74218294E-02, -3.74486890E-05,
                       1.27364989E-08, -1.79609789E-12, -4.46546666E+03,
                       3.22739790E+01]),
                NASA([1000.00, 5000.00],
                     [ 3.98580522E+00,  4.12429986E-02, -1.84390497E-05,
                       3.06155241E-09,  0.00000000E+00, -5.70112071E+03,
                       6.85332264E+00])),
        transport=gas_transport(geom='nonlinear',
                                diam=5.489,
                                well_depth=386.2,
                                dipole=0.4,
                                rot_relax=1.0),
        note=u'000000')

species(name=u'C5H11',
        atoms='H:11 C:5',
        thermo=(NASA([300.00, 1000.00],
                     [-9.05255912E-01,  6.10632852E-02, -4.09491825E-05,
                       1.46093470E-08, -2.18859615E-12,  4.83995303E+03,
                       3.25574963E+01]),
                NASA([1000.00, 5000.00],
                     [ 4.88920629E+00,  4.22834537E-02, -1.85843100E-05,
                       3.04124763E-09,  0.00000000E+00,  3.43475468E+03,
                       3.43704878E+00])),
        transport=gas_transport(geom='nonlinear',
                                diam=5.041,
                                well_depth=440.735),
        note=u'000000')

species(name=u'A1C2H2',
        atoms='H:7 C:8',
        thermo=(NASA([300.00, 1000.00],
                     [-6.31199276E+00,  9.51097942E-02, -9.56352102E-05,
                       4.97780207E-08, -1.02323717E-11,  4.57330975E+04,
                       5.35475222E+01]),
                NASA([1000.00, 3000.00],
                     [ 5.85935080E+00,  4.72571459E-02, -2.69864733E-05,
                       7.35311775E-09, -7.74900830E-13,  4.33198974E+04,
                      -5.22359403E+00])),
        transport=gas_transport(geom='nonlinear',
                                diam=6.0,
                                well_depth=546.2,
                                dipole=0.13,
                                polar=15.0,
                                rot_relax=1.0),
        note=u'G3B3')

species(name=u'A1CH2',
        atoms='H:7 C:7',
        thermo=(NASA([300.00, 1000.00],
                     [-6.07053038E+00,  8.35201507E-02, -7.41700083E-05,
                       3.13153847E-08, -4.23670868E-12,  2.35894712E+04,